Generated Ligand
Programmatically generated
Comment line
100  0  0  0  0  0            999 V2000
  -14.4216   39.0988   16.8233   O
   44.9196  -20.5426   36.1265   O
  -39.3996  -10.3664  -36.5656   H
  -29.5896   49.5804  -19.1049   O
  -19.5297  -26.5207   -2.3619   H
  -34.4773   -9.3666  -32.1293   H
   18.9032  -15.5796  -46.6998   C
    0.3116  -37.6383  -37.6414   S
  -47.1257  -45.2567   -8.2842   H
   14.4191   48.4489   41.9196   H
  -16.5651   39.9160   34.3914   C
   -1.4226   27.6557   -9.3026   N
   17.8653   -3.3462   49.1440   H
   26.9149   11.7152  -45.7387   C
    5.5841  -27.5495  -19.9371   C
   32.5137  -19.7511   14.5936   C
   -1.3219   41.4523   34.6505   S
  -33.2902  -20.2678   45.4585   C
    6.2905   23.7738  -49.1116   O
   45.5999   31.8699   -6.3624   N
   18.7983   30.6412  -39.2559   N
   17.3734    6.8120    0.2137   C
   27.6040   47.8065  -23.2964   N
   12.2211   33.6916  -47.1831   S
   22.0869   34.5599   -4.5901   O
   31.2959   24.7570    6.7371   O
  -10.3020  -23.9520   -9.6852   O
  -44.3589   33.7348  -14.6949   N
  -47.5383   42.8648    4.0691   H
  -31.9824  -29.0622  -47.2447   S
  -45.4741  -18.8624  -49.3240   N
  -41.8784   22.9153  -23.5470   C
  -41.5310   16.4786  -42.5709   O
   34.3306   -9.1579   30.7824   H
   37.5993   -6.7461    1.9003   N
   10.0776   17.3675   47.4710   O
  -34.5156   -5.8249   19.8018   H
   28.7984   -5.1761   43.2876   H
  -24.3017  -14.9521   -2.6167   H
  -49.8811    4.2369  -38.5315   N
    5.5468   -7.1354   30.1144   S
   -4.4151    7.6161   42.9834   C
  -14.0166   20.5511   38.8076   O
  -26.8776   27.6776   16.5808   S
   22.4015  -37.4110    9.4569   H
   12.4695   -3.7706   -6.0122   N
  -35.6808   -4.4972  -14.0099   S
   27.8325   43.5893   49.7124   N
   43.3223    1.2396  -22.8495   O
    8.6623   11.6755   46.1611   O
  -29.9546  -40.1178   -7.7086   N
   24.2614   -7.3851   27.3962   C
    3.8650   42.7936   33.4159   N
  -48.7042   19.5969   13.2435   N
   17.6216  -25.3631   -6.1227   N
   17.9216    0.2327    3.2933   C
   24.1363   34.2637  -18.3991   C
  -13.2150   28.5286  -28.5553   S
  -25.3504   18.9467   42.0711   O
  -17.0864   -2.6458   42.2384   N
   33.1810   14.7191  -10.9631   C
  -42.6121   -0.2562   -8.5641   S
    8.4561    0.7010  -40.9105   H
  -26.0454  -29.4783   46.5191   C
   34.5491   -2.6922   -3.6557   C
   13.6892    3.8521  -31.8552   N
  -18.5046  -29.6815  -44.3226   S
  -33.6308   35.6356   33.5317   N
   10.9875  -30.6685  -48.0394   O
  -24.3565   19.7376  -49.4839   S
  -16.8032  -12.0306  -34.6110   S
  -49.5286   10.7657   27.7253   S
   15.1565    4.2541  -24.0673   O
  -32.9254   18.3294   48.7473   H
   17.2917  -40.9526   -6.0841   N
  -20.1532  -47.5482   -1.6385   N
   -4.3303  -11.3833    3.6907   S
   -7.4001  -14.9089    9.5609   S
   20.8976   48.2117   -4.3918   S
   -2.8878  -36.0854   39.3062   C
   12.0573  -18.6918   39.2674   H
   -0.5554   41.2411   17.1654   O
   17.1841   -9.2381  -44.9292   C
   -1.3961   -7.0795    9.5914   N
    7.2243  -13.8165  -33.1109   H
  -18.5946   12.3141   43.3492   S
   21.3225   24.9156  -18.4988   O
  -42.0334  -17.7876   -5.5018   O
   14.2869    0.8161    2.5781   O
  -14.9379   49.7979  -10.6286   S
   16.6062    6.5801   13.0399   C
   25.2497   45.9551  -19.1811   N
   16.0206  -30.0433  -10.3805   N
   17.5476   43.8321   29.8543   N
  -20.7783   18.7278   28.1009   C
   31.4564   11.0267  -42.4307   C
   -3.5340    4.9060   28.1132   H
    5.5764   39.4009   21.2391   O
  -31.5220   28.8918  -15.5608   C
    2.7718   12.3525    5.2236   O
M  END
$$$$
