Generated Ligand
Programmatically generated
Comment line
100  0  0  0  0  0            999 V2000
  -41.9695   43.0101   19.5662   H
  -33.4261   40.5234    3.2580   N
  -15.3146  -31.8642    7.7819   S
   32.2291   19.6379   22.5909   S
   38.7271   16.5411   46.4979   S
  -14.8001  -25.4142   31.0653   S
    7.1145  -12.7354    2.6018   N
    3.5434   38.0904   45.0729   O
   49.8566   -4.8613  -32.9480   O
    4.2198  -31.2640   49.0387   C
   15.0276   28.2205  -35.7222   N
    3.2794   -1.7836   40.6140   O
  -32.6861   -5.0932   47.4583   H
   23.7734   10.9385  -48.1988   O
   31.4441  -16.7910  -11.5463   C
   27.1023  -41.0886  -12.2111   C
   17.1732   -4.6374  -19.8184   O
  -43.8579   14.0410   42.5419   H
   -9.8052  -27.1718  -13.7343   O
  -27.1651   44.9379    8.2175   S
   49.0151  -10.4836   35.0762   S
  -21.0816  -17.0858   20.3596   N
  -43.8659   -8.0986   24.4855   S
  -48.3492   18.3449  -42.4782   C
   32.6849    6.3032  -29.8743   H
  -49.6955  -22.3915   30.5690   H
   -5.6742   -6.3533    8.3486   O
  -48.3800  -22.5882  -35.4921   S
   13.8368    8.5442   36.0579   N
   37.2756  -40.3394  -35.8639   C
   38.5622  -22.8217   12.6140   S
   15.6884  -37.1901   37.9723   S
   15.2176   -5.9503    9.5027   H
  -14.1791    9.7110  -24.1683   S
   28.2377    8.7750    1.2915   H
  -31.4221   -1.7271  -39.9030   N
  -33.3160  -43.3278  -17.8382   S
   -2.7713  -19.1773   11.9186   N
  -16.3878   -2.2873  -43.9050   S
   40.4713  -24.5557   -8.6744   C
   26.0716   29.9738   41.8286   H
  -46.7049   22.3507   34.3579   O
    4.3952   -4.2823  -21.7936   H
   37.7338   15.3059  -47.6674   H
    4.3294   -5.0117   12.3887   S
   17.1062   21.7073    1.2456   C
   44.6656  -19.1616   39.1173   S
   49.2559  -16.0778  -10.2791   O
  -49.6042   -2.0010   13.0976   S
  -28.2573   24.9771  -47.1427   O
   25.1609   -8.2119    6.8117   N
  -28.7704  -36.9839   19.6741   O
   49.5391  -40.9247  -21.3233   O
    2.7934  -46.4096   21.5771   H
   37.5505   36.7500  -28.5239   C
  -42.5185    5.5952  -25.9532   N
  -15.6145    2.9235   46.6982   H
  -12.1814   -5.7987   11.2046   C
   30.4726  -43.9751  -36.4406   N
   17.3368  -41.7673  -36.9310   C
   12.7779   28.9215   31.2558   O
  -21.5120  -18.4216  -42.5477   H
   -1.1782  -48.3505  -41.4758   H
   -6.2890   44.3352   48.8611   C
  -36.4438   21.9644   43.1819   O
   15.2548  -18.5103   28.3721   N
  -18.2205   -6.1937   27.8927   C
   23.1407   31.9268   38.5312   N
  -37.2231  -33.7292   10.0854   H
   19.0032  -12.8484    5.5039   N
   10.0945   47.6001    1.9250   H
   38.9944   34.1922   -5.3724   S
  -13.0142  -43.0250   28.2757   H
   41.0614  -19.3263   23.9625   H
   48.8148   23.4982  -14.4725   N
   27.6643   14.9564   24.6437   N
   49.0624   25.7617  -46.5032   N
   35.2424  -20.4901   -0.6711   S
   16.9772    0.0193  -19.3912   S
   30.7746   45.8835   43.1751   O
    2.9826   41.1366   16.5515   S
   -8.6574  -10.0648  -42.9066   S
   42.7205  -43.4885  -46.9626   S
  -11.0815   -8.6029   43.7735   N
   46.9576    4.9667  -37.8296   N
  -30.3639  -35.6955  -13.2365   O
   35.1602  -19.2387    7.1699   O
  -30.7832   10.6476  -48.3844   N
  -30.7816   18.0955   41.5608   C
   33.1580   12.6526  -25.8942   O
   -4.5509  -45.9473  -44.5305   S
  -47.3506  -26.4488   41.4139   C
   45.9132  -25.5342    3.9718   C
   14.8625  -15.5779  -23.7787   H
   49.6699  -40.5393   -2.4682   H
   24.2249  -47.7066    7.3771   S
  -13.6040   -2.9609   22.4086   H
    9.7096   38.0275   -2.3065   C
   12.2491  -33.4772  -28.9199   H
   30.5218  -15.2435   14.2061   H
M  END
$$$$
