Generated Ligand
Programmatically generated
Comment line
100  0  0  0  0  0            999 V2000
    2.7113  -30.4854   14.2187   N
    9.2132  -32.2413  -43.6944   S
    3.0403  -12.9585   24.1240   C
  -39.2376   -5.3959   45.9487   O
   34.3316   -6.5614   -4.7358   N
  -47.0841   10.7278   11.7927   S
   36.6027   15.4249   14.9096   N
  -16.9448    1.3421   -6.7407   O
  -45.3036  -18.3078  -29.9598   N
  -20.3423  -44.7878  -26.3718   S
   27.2401   27.7048   27.9603   C
  -27.2205   38.8575  -13.4990   C
   -5.8217  -43.6287   20.8403   H
  -18.6446   -6.3538    1.4714   H
   16.5448   29.8922   18.9878   N
   41.0948   31.9346   17.1189   O
   22.1167  -40.4277  -32.4572   S
   41.2390  -15.1803   -2.8005   C
  -26.2876    2.4592  -13.2008   S
  -38.3543  -24.6085   24.4600   O
    9.1004    7.2038  -34.3942   N
   22.1347  -34.1824   11.8954   O
  -19.6258   34.4717  -33.4420   O
   12.5240  -25.9604    8.8486   S
   -2.2987   29.0827    0.0237   S
  -43.3604  -18.6391   10.8878   N
  -14.1451   49.1194    4.6594   H
   45.8482  -16.8279   -4.9879   C
   47.2941  -25.7142  -21.8460   O
   36.6662   11.8300  -20.8616   S
   30.8375   13.9922   31.6630   C
  -45.4401  -28.9327  -44.8056   H
   21.1479  -11.4303   -0.3358   S
  -30.7265  -29.8169   -5.8333   H
   29.1228  -42.4488   -9.3587   H
    4.6027   13.6467  -17.9709   C
   17.4038  -43.7516    8.9056   S
   -0.7246  -36.1304   22.0331   O
   33.2549    8.8211   36.0499   N
   24.4351  -13.4014   27.3063   H
  -41.9690  -46.7495   -7.5498   H
   42.0858  -38.9299   35.5542   N
   -7.7242  -26.7682   34.9217   S
  -20.2428   -2.0026  -42.6496   N
  -37.4000   12.2027   49.9318   N
  -40.8054   21.1289   12.0884   C
   -4.8446  -31.3079   40.7667   H
   31.4011   21.1089   -6.0397   H
  -14.9215   31.0838   36.2879   S
    3.2289   20.4188   -6.6466   H
   24.3701  -33.9412  -37.2603   O
    0.5578  -26.8915  -20.4813   N
   46.7774  -41.5550  -15.1271   H
    2.8717   38.7469  -23.7634   N
  -19.0890  -49.2014   47.5917   N
   10.1312   48.8335  -14.9067   C
  -24.8235   33.1686   11.1553   C
   -6.6115  -28.0139    6.5557   C
  -30.6316   47.2027  -35.5080   S
  -35.6929   20.7816   41.8786   S
    4.6788  -22.1574  -40.1192   H
  -29.0541   28.3382  -35.1696   C
   13.3968  -16.2984   44.8612   S
  -42.6613  -25.9044    2.6454   S
   34.2937  -46.3502  -21.6934   S
  -13.7932   -6.0083  -49.8455   H
  -30.6392   49.9402   11.0220   S
  -27.8284   45.3300   49.2283   O
  -15.1093  -36.0428    6.0733   N
   20.1851   19.3345   12.2239   H
   21.5823   22.6820    0.3294   O
  -38.9795  -28.8673  -40.1544   H
  -15.5610  -45.9335  -33.4123   C
   36.5670   38.9430  -43.6587   H
   49.9449   11.4633   12.6373   H
  -34.6416   41.1964  -17.0548   C
   24.8911  -37.4378  -44.2533   H
   30.2183  -47.1367   -4.8514   S
   36.9937   34.3744   40.4845   S
   -7.3020   46.8444  -32.9285   O
   31.5335   -6.8949    5.4159   C
   22.1671  -37.3559    8.1828   O
  -35.0191   10.6483  -23.2112   C
   -0.3484   31.1160  -12.0375   O
    7.2067  -42.3227   33.1036   C
   25.0828   27.9394  -32.0504   C
  -28.5687   28.2690  -19.4365   H
   28.7301  -44.4761   16.2693   O
  -35.0427  -19.4709    3.5331   O
   -4.9853   20.5905  -30.9844   O
  -19.6674  -34.1739  -13.3102   N
  -24.6836   -0.2027  -15.6586   S
   18.6809   29.0674   37.9972   O
    4.1850   32.7956  -21.0867   S
   17.7211  -25.4208   33.8932   O
   31.2416  -22.7208  -41.9167   H
   -5.1534  -42.1957  -14.9823   O
  -26.2986  -28.8345   -8.8431   H
  -27.1503  -42.6205   17.3710   O
   36.9277   44.7016  -33.0762   H
M  END
$$$$
