Generated Ligand
Programmatically generated
Comment line
100  0  0  0  0  0            999 V2000
  -22.6594   25.4134  -46.7282   N
   27.4474  -44.3660   28.5853   O
  -30.7191   38.8191   26.0288   H
  -36.1526  -27.1729   14.3981   C
   31.5509  -21.0076  -26.3537   O
   15.9990   -7.8547   -9.9197   O
   12.8485   14.7845   32.6407   C
   32.7163   -8.1658  -36.6409   N
  -47.9336   -8.2833   44.5588   C
  -40.4881   43.2120   22.8034   C
   16.3445  -24.7043  -10.0573   S
   12.5521   35.9383   -4.1412   N
   -4.2335   48.3416   36.7543   H
   32.8573   26.6925  -11.7474   O
  -44.6283  -49.1200   22.7036   C
  -25.4734   47.8665   13.9437   H
  -48.3688  -31.3650   -5.2784   S
   40.1231   29.9313  -23.8134   N
   35.1100    5.2431   48.2173   N
   12.7909  -40.8570   26.5320   N
   11.4146  -43.1389  -43.7957   N
  -39.5382    2.0076   -1.0342   S
   31.7492  -42.8046  -43.7333   S
   29.1084   -5.8401  -13.1526   N
   11.9279   30.4223  -33.9445   C
   22.9865  -11.1431  -36.9077   N
   31.1747   16.2822  -47.5461   C
    6.7153   33.4693   27.0058   O
  -21.0827  -21.7084  -27.3210   N
  -45.1443    4.6306  -11.6674   S
   14.0797   48.7206   30.5072   O
  -39.1771   -9.4516   36.3229   O
  -10.8166   11.1311  -33.8197   O
    0.6363   -3.0257  -36.0956   H
  -33.5551  -45.0202   29.1890   C
   25.7638   -1.3266  -23.0475   C
  -46.9296   46.0206  -16.4454   C
   30.8884   43.7948   27.9181   N
   22.2724   17.1326   44.0014   N
   14.8714   13.3489  -49.8526   S
   15.6660   19.5906   29.8870   H
   10.5776  -23.3846   -3.6922   C
  -41.1564  -46.8263   25.2153   N
  -47.6745   21.2724   48.8461   N
   48.7151   26.6199  -22.4629   O
    4.7941    2.4137  -25.3783   C
  -39.2516  -28.6207   -4.4985   S
  -10.7359  -13.2779  -21.5797   C
   39.8674  -46.7504   31.5389   S
  -32.6152   46.0722  -18.9170   H
  -47.4266   48.7784  -22.9484   N
  -47.5278   31.9237    5.6417   O
   34.4193   30.1918  -47.2393   C
  -35.3511  -41.6687  -41.1536   N
  -15.5480  -24.1390  -27.3482   S
   14.8529   13.9363  -20.3930   H
   27.1477   16.3313   26.2043   N
   -5.7887   26.7045  -27.9460   H
   33.1473  -17.5239  -23.8681   O
   36.1291   41.3753  -40.9190   O
   17.7014    9.0465  -48.1145   H
  -38.0664   -1.1422  -14.0287   O
  -18.6324   26.3054  -32.8777   H
   -4.9513   22.1046    2.2132   S
   33.4904  -29.0752   49.0435   N
  -10.9729  -35.3034    3.9428   H
   -7.7049   -3.2184   34.9276   C
   49.1741   40.8970  -27.1817   H
  -26.6015  -17.8982   46.7229   O
  -28.6906  -18.7955   -5.7200   O
  -44.2619   34.4902   -9.7765   C
  -46.1753    6.0110   10.2712   O
  -43.8539   -4.0380   37.0466   N
  -43.7422  -35.3313  -13.3830   S
   40.5342   42.3427  -41.4300   C
   15.2165  -21.6214   16.5861   C
   45.2883  -47.5352  -28.7843   H
   -7.5691    2.4006  -49.7633   N
  -29.3574    5.8654  -44.1731   H
  -34.5245   19.0979  -11.9739   H
  -21.5405   33.4520   -8.5904   N
   24.9583  -11.2039   34.9883   O
  -22.9701  -26.0341    0.7562   C
  -13.8378   47.9558  -29.8161   O
  -46.3982   48.6429    2.1545   O
   41.1944   35.4014   17.8542   O
   -6.3949  -49.1280   41.3139   S
  -14.4289  -47.7023  -20.3393   H
  -18.8165  -20.3459  -47.4048   O
  -28.9115  -36.9613  -28.8208   H
   32.9359   -5.4835   34.0530   N
   11.7502  -23.1507   43.7734   N
  -41.0018  -25.2475  -11.0446   O
    3.7740  -21.3366   -8.9282   N
    4.4378   10.9103   14.2356   C
   29.0549   35.2386  -41.8825   C
   29.8113  -22.6185  -24.2310   S
   -1.8171   38.3974   46.9414   N
   33.5296   27.5972  -25.1150   C
  -16.5813   27.4388   -1.8044   H
M  END
$$$$
