Generated Ligand
Programmatically generated
Comment line
100  0  0  0  0  0            999 V2000
  -45.4348   13.2961   13.9485   N
  -41.1230   18.7284    4.7669   O
   14.6880   41.7327   25.8413   N
   13.1393  -37.1203  -48.6648   C
    4.9207   11.9636    8.5836   H
  -38.7185   19.9306   -8.4570   H
   16.0193   15.1010  -36.2780   O
  -20.5320   26.6577   34.1464   O
   47.6703   -3.3203    7.4800   C
    8.1218   -3.6579   33.4043   H
  -49.7391    9.0404   48.8890   H
  -49.8918    3.6335   14.2311   N
   34.9236  -10.5452    3.8265   C
   -6.9556  -25.6565   15.3505   H
  -18.6213  -49.8937  -41.6199   H
   31.3622   18.9186   47.3348   O
   16.4875   -1.2212  -14.5825   O
  -28.9343  -28.8070   41.3696   O
  -49.1221   37.7822    3.5924   N
  -49.9556   38.0618   37.8702   H
   21.4854  -27.5632   -6.9501   C
   22.0856  -29.4890   11.6112   N
  -12.7333   47.2853  -34.3121   S
   27.5995   25.4194   43.7044   H
    2.6682  -22.0976   27.8339   N
   -3.5015   -2.6977   25.3283   O
   25.9605   44.4276   -0.2990   S
    7.6011   12.9985   23.1492   O
  -40.3128   -6.1874   35.3409   H
  -42.3706   12.6677    5.6582   O
  -10.4993  -39.5453   26.8639   H
  -44.7742   29.5857   46.6012   N
   24.0250   20.4504   13.9159   S
   46.5169   37.4768   47.9267   N
   48.9879  -25.0635   27.6472   N
   46.9041   33.7261    9.4623   N
   44.9360   32.6291  -42.6156   S
   36.6319    4.2916  -34.6617   N
  -38.6496  -33.7001   -0.8175   S
   10.3693  -12.3589   -0.2507   C
   -8.3873  -30.3202  -29.5592   C
   -8.2641  -21.4731   39.8943   C
  -28.6439   41.0914  -49.6385   C
  -10.6537   26.7037   -4.0204   O
    9.1004   33.9749   22.5561   O
   34.6767   32.5454   40.6793   C
  -22.3685  -20.6246   45.5827   C
  -16.7947  -43.7270  -31.9560   C
   11.8295   26.6938  -24.9749   H
    7.7871  -40.7724  -39.0513   O
  -28.6851   42.6724  -29.3660   C
  -49.6271  -24.3462   -2.5737   S
  -16.5858  -40.6739   -2.9821   O
    9.8466   38.8375  -28.7187   N
  -24.8510  -17.8086    7.6173   O
  -37.2655   20.5969  -17.9684   C
   40.9066   11.2005   42.6512   O
    5.8513   11.2585   -8.8973   N
   48.9521    5.1084  -27.4730   N
  -48.5998   48.4531  -46.4053   O
  -36.3171    1.0621  -49.6305   S
   38.5026   10.7147   21.6802   H
   30.5088    3.2571   24.3515   H
    9.5025   27.8278  -23.7142   C
   12.1702  -17.3279   -0.6397   N
   49.0595  -30.3129   -2.0363   N
  -15.1331  -39.0547   20.7378   S
  -36.7282   29.8594  -35.3502   H
    0.1472   42.5653   -8.1193   C
   48.8569   30.6696    0.4801   N
   33.8398    0.0438  -17.2226   C
  -27.8960   14.6462  -30.7266   S
   24.5533   21.6374   18.3353   H
   26.5723  -20.5784  -37.1566   H
  -47.2443  -27.9341   41.6792   H
  -11.9094   24.2236  -46.6024   O
  -42.0911  -10.1146   40.7880   H
   20.5323  -15.2528   -6.9350   N
   39.8006  -28.5902   45.3131   O
  -19.0294   27.7553    2.3501   N
   10.9726  -17.8271  -16.5290   C
    5.4731   49.3849   10.8838   S
  -16.6135  -10.5098    2.6269   S
   11.3344   34.4255  -10.4715   N
  -40.0807   36.2523   30.9325   H
  -40.7513   23.0947  -19.9803   H
   13.4785  -24.0925   33.2801   O
    5.0576  -26.7415   26.2069   S
  -30.4548   48.7779   43.3447   N
  -38.3018    8.8894  -47.8377   N
  -37.8976  -49.7857   -1.3417   S
   27.8518   13.2312  -11.8907   O
  -45.9004    9.4324    6.5211   C
  -26.8971  -36.6137   11.9741   C
    5.2767  -31.1926  -38.0585   C
   47.2533  -16.9111   37.7148   C
  -46.4916    2.8144   -7.9232   O
   49.2129    2.8735   37.8767   H
    8.9183   23.0449   47.5619   S
  -11.2728   -3.7340  -25.4338   O
M  END
$$$$
