Generated Ligand
Programmatically generated
Comment line
100  0  0  0  0  0            999 V2000
   -0.7178  -13.2083   43.2680   O
   12.9814   37.4093   42.5978   N
   43.1104   46.2149  -47.1436   S
   47.6782  -24.1988  -49.6904   O
    2.4080  -36.6909   19.6111   S
  -12.5715   33.0710   49.2248   O
   33.0482  -30.4417   26.4926   C
   12.6203   36.9842   46.1988   S
   17.1472   40.8879   48.0910   O
  -12.4121   26.6042   32.1292   N
    1.3318   45.0296   44.0754   O
  -12.2817   31.2272  -49.0379   N
  -11.8409   22.1507  -44.2729   N
   12.1512    6.1143   -4.7615   N
  -25.4351  -17.7669   20.8824   O
  -38.7086   10.5559   23.9299   C
  -39.2571  -10.7909  -41.6565   N
   49.5514  -28.1225   -1.8741   H
    2.8276  -35.1046   42.8374   C
   46.8880   31.0976   27.8408   H
   13.8995  -16.2383   20.8307   C
  -49.3713    5.2585  -14.2081   H
  -29.7871  -34.5006  -12.8896   O
  -46.4471  -12.8055   19.2180   H
   42.0629   41.2513  -49.2749   N
  -31.7576  -44.8702  -17.4269   O
   -1.4342   47.6765   16.5115   S
  -22.2486   49.8550   -3.9347   O
  -11.7461   20.5918   31.8639   O
  -40.5031   18.4522   17.4131   H
  -22.3895    9.6965    9.3133   S
  -12.4920   12.7073  -41.7863   H
  -15.1236   21.2645   40.5202   C
  -34.5813   13.4678   43.4138   S
   22.5682   32.7588   39.8717   O
    5.1202  -18.0772   35.2033   O
   -5.7259   39.8941   32.5626   S
  -34.9324   26.9576   18.6926   S
  -18.5009   31.9283   39.4011   C
  -42.2304  -21.9755   44.9413   N
    7.3509    3.4834    1.1817   H
   32.3040   14.3983   16.2743   C
  -41.6614   47.4443   -1.5231   S
   -4.5892    9.5218  -16.3333   N
  -21.4480  -42.6135   32.4979   H
   32.0037  -13.2282   20.1344   O
   40.2448  -40.4244   42.7464   C
   -8.8014   27.2705   13.7193   S
   10.8829  -39.4866   14.1026   O
    1.0309   34.6468   42.7400   S
   -7.2101  -25.0209   30.8191   C
   46.6779  -10.0290  -10.2788   O
  -22.3130   38.8210    2.0782   C
  -34.1807   31.0285   44.4333   H
    4.9518   10.7626   44.9214   C
  -40.5537   19.8509  -33.9485   H
  -10.9124    1.0203  -13.0309   O
  -10.0362  -33.7352  -10.9876   O
   28.7342  -38.9177   42.7695   N
    1.3928  -38.2050   -8.5976   S
  -34.3131  -48.4208    4.8598   S
   33.7992    8.6122   30.3663   N
  -21.8073    5.5503   11.9570   N
   47.4118   25.9354   -5.3132   N
  -12.2828   42.2209   48.9095   H
   45.9201    2.3383   -4.9239   H
  -12.6598  -10.7782  -38.8066   C
  -12.6755  -40.3024   -7.0285   N
   40.8061   -4.9591  -37.3659   O
   28.5181  -38.8356  -13.4646   N
    1.4921   13.3658  -28.8578   O
   41.7705   -9.8249  -42.0866   S
   -2.4728  -18.6912  -16.2972   S
  -22.3281   19.6284   40.6462   N
  -20.8453  -27.9239   20.2600   S
   32.7360   39.3736    4.7009   S
  -47.4460   13.3314   44.5978   O
   21.1518  -44.8299   26.9165   S
   22.9781  -12.9793   32.3478   N
    2.7784  -48.9808   35.6276   C
   10.7965   46.7543  -47.8888   O
  -32.7454    9.8060   25.0648   S
   22.3194  -43.4923   15.2466   N
  -44.1118   21.6982   17.5479   N
   -1.5528  -46.6293  -15.4495   N
  -32.6818   45.2651   27.1615   H
   27.2849   49.2362  -25.8390   O
    8.1820   49.1787   35.7694   S
  -20.9810   40.5928  -48.5361   C
   30.6473   26.9279  -37.0846   C
   45.1156   30.6527  -30.0219   S
   27.6002   38.4668   11.5944   N
  -46.7254   25.5427   -5.6986   O
   19.5777   18.7679   42.2386   N
  -22.4000   16.1819   26.7795   O
   -2.9730   36.6329    6.7097   C
  -14.5748   33.6737  -48.7278   O
   26.6046  -25.1813   38.0280   H
  -26.4029  -33.4975  -12.7574   S
   25.7088   16.3901   27.0903   C
M  END
$$$$
