Generated Ligand
Programmatically generated
Comment line
100  0  0  0  0  0            999 V2000
  -36.5663   10.3463    8.1100   O
  -43.2148  -19.8111   19.7790   S
  -36.0711   -2.5546   37.0162   O
  -32.4281   -3.9213  -35.4752   O
   36.6711   33.2819  -13.9277   C
   -4.8246   -0.1089   12.4659   S
   15.8439   35.3855    3.1810   C
   45.4536   33.8416  -33.9728   N
  -36.7463   31.2436   22.9868   O
   38.8726   44.9865  -18.6767   S
  -20.0257   11.7182  -20.0234   H
  -35.5372  -49.7636  -11.9902   N
  -13.5989   19.0996  -21.5244   S
   13.0018  -14.0445    4.6039   S
   27.5057  -17.6756   36.5059   N
    4.5965  -47.3369  -36.5407   H
   -1.8073  -17.8055  -35.7041   C
  -23.4541   25.7621   -8.3143   S
   11.6928  -17.3028  -23.7427   O
   -2.0557  -30.8347  -38.0375   O
   16.7904   36.8485   17.7904   H
  -39.0070   45.7667  -19.4802   S
  -49.0777   26.2421   21.3520   H
  -12.9531    1.7063  -36.7745   N
   -5.0185  -27.9609  -18.4377   H
    8.0012   16.5845  -35.6807   O
    4.2983   32.9874   -3.4574   N
  -27.0168   -9.8315  -33.9074   N
  -43.0476   29.3974   36.2374   H
   10.7260   24.4951   20.5961   H
  -24.7484   25.7673   -2.1078   O
  -47.8823   35.9029   24.1437   N
   -5.0060    1.9006  -42.2082   O
   45.9440  -45.0328  -23.8228   O
  -40.4119  -37.1814   21.4821   H
   -6.9881  -47.6958  -40.0748   H
   44.6582    0.8841   40.5620   H
   45.1874  -34.2261  -36.7157   H
   20.8978   41.5560   24.1785   O
  -36.3523  -32.8365  -37.2644   S
  -45.7066   42.0326  -29.8430   O
   -8.9364   -2.2868   -6.1698   S
  -17.6097  -41.8004   10.6449   N
    7.5214   -1.0130    0.5932   H
    2.2045  -31.8833   43.3722   C
   10.8956    9.1395   18.5413   O
  -27.0190   12.9053  -20.4984   H
  -19.4077  -11.7264    8.8471   S
   16.9447    1.3835  -15.3467   O
  -27.2885   38.5755   19.4297   S
   47.7123  -23.0077   20.5825   N
   24.9359   14.1913  -26.1173   H
   26.8166   22.2350  -24.7634   O
  -40.0807   10.8245   39.0437   C
  -37.2010  -43.3000  -47.7729   N
   42.5636  -32.3921  -46.2177   O
   34.1293  -48.8403   37.2844   S
   47.2746   33.8160    4.1581   O
  -28.2472    5.1862   28.8290   S
    3.8211  -41.9635  -38.2489   C
  -37.7505   43.3736  -14.6798   N
   42.6999   41.6380    8.0602   H
   -1.9389   40.2298  -33.8872   C
   19.2295   21.6833   -0.4203   H
   48.0775  -16.9983   49.4840   H
    5.9030  -13.8484    6.9008   H
    7.9971   -8.2175   40.2922   C
   28.5007  -41.9941    4.3458   N
  -36.0684  -45.7834   11.6173   S
   -9.2555  -45.1992  -41.8447   N
  -21.1197   15.3658   33.3279   N
   -8.5603   26.7355   21.9044   S
  -11.8134  -46.2344  -42.3927   H
   27.3374  -23.1663   32.7563   H
  -27.7127   37.7012   29.3565   N
   14.3153    7.9795   37.0459   O
  -49.6821   11.8275  -29.6713   H
    4.0210    7.8873   16.0489   S
  -35.7749  -48.4640   -8.1557   O
  -48.1493   28.6194   23.6936   H
  -29.2264   21.5838   11.0498   H
  -44.5650   39.4821  -19.3033   S
    7.3408  -12.2100   46.4102   H
   27.5113  -49.9726  -28.4619   H
  -15.0634    8.2494    5.8049   C
   -8.5179  -49.9308   22.3564   O
    7.4479   20.6680  -34.7523   N
   20.5431   29.1501   29.2187   O
   -8.4778   11.1956   49.1276   H
   24.4218  -24.9080  -28.7489   C
   14.5637  -27.7282   15.7742   C
  -35.1019  -26.4201   30.2278   O
   -6.5524  -28.8420   10.2800   S
   42.2319   19.7449  -24.6145   H
  -15.6812  -37.1399   36.5517   S
   39.0306   49.3270   16.0913   C
  -26.6402   13.2143   36.1117   O
   48.2792  -45.8073    3.1536   N
   30.3043  -48.0139    9.2636   H
   48.4667    0.2771   20.7463   C
M  END
$$$$
