Generated Ligand
Programmatically generated
Comment line
100  0  0  0  0  0            999 V2000
   12.0731  -42.2231  -14.9356   H
   18.3596   24.9457  -32.0631   H
  -12.4592   24.4249  -19.3889   H
   45.3199  -16.9869    2.4122   C
   22.8765   -7.0383  -12.8257   O
   15.5985    6.6026  -11.8027   N
   24.7529   18.8617   42.1116   H
   15.6086  -15.6134   -6.9228   H
  -26.8420   37.4892  -33.5536   N
   32.5397   11.5440   -3.9338   S
  -40.2728  -24.2436  -19.1627   N
   43.8972   42.5805   -7.9915   C
   20.6301   47.0779   20.0653   N
   14.5018   31.1867   34.1601   S
   44.9626  -31.5059   24.9369   N
  -14.9997   -1.2229  -37.3647   C
  -20.0556   36.8278  -49.3801   C
  -42.2148   12.1288    8.0068   C
   -8.1858   32.4666   24.1648   O
   40.9980   48.6355   24.8910   O
    7.7874  -25.8088  -41.3060   O
   10.7342   49.5123   43.3125   C
  -49.3958   -2.6811  -34.9744   S
   37.0065   11.9407   38.7874   H
   24.8570   34.1080   11.1026   H
    2.4087   29.7524   46.5033   N
    1.5317  -16.8124   17.5650   O
   46.0181   17.2948   20.4245   H
   27.8413   10.7694   -4.3332   N
   18.5133  -38.8412  -42.0846   O
   33.2610   43.0306   -2.4561   O
   39.9635   48.0908   18.6620   N
   11.9530   -5.7668  -24.4455   N
   27.5651   -8.9255   33.5359   S
   19.8807   -9.7999  -36.4082   C
   22.1246  -37.2866  -46.8505   S
   14.6127  -13.4062  -41.3343   O
   29.9395   47.2967   43.8045   O
   -1.0672  -21.8653  -23.6676   C
  -21.8095    9.9092  -15.4947   N
  -21.8966   29.2415   47.2314   O
   -3.7049  -17.9167  -33.6507   C
  -35.6960    3.6788  -21.3455   N
   -4.6712    9.9272   -7.4727   O
  -13.9926  -43.0909   42.6228   N
   21.9733  -42.8372    7.0037   S
   -7.5716  -25.4401   39.8877   S
   23.6156  -39.2697   13.8336   C
    6.0061  -35.5848  -24.2776   C
   -9.4432   21.7128  -20.7651   S
   13.9662  -48.1846   -4.0139   N
    2.9097  -38.3438  -28.7587   C
   40.1591  -26.7344  -30.9610   H
   47.8173   46.5142  -10.4168   O
  -42.1981   47.4953  -45.5801   H
   33.9808   19.4024    9.5933   O
  -14.8228   42.9965   26.4604   S
   48.8091   13.1366   37.3452   S
   49.3770  -49.4147   15.2688   C
   -2.3602    1.8824   33.1524   O
  -48.9235   -8.0233   20.9413   O
   29.9107   46.8492   46.5568   H
   21.5502  -28.2857    2.6620   C
    3.1642    2.4096   33.8990   S
  -18.5009   43.4243  -31.9728   C
   38.7979  -48.0964   27.2301   S
   -3.5352   31.9890   17.3212   O
   30.4491   44.5873    3.4985   H
  -17.9681  -30.3660   -3.3928   H
  -40.4557   20.3831    8.4166   S
   -8.5650   37.0695   15.9402   H
  -37.8752   16.5262   45.6416   O
   -4.5207   -6.9520   21.1545   O
   39.0230  -10.8486   -1.4263   H
  -42.8357   12.6921    8.8472   O
   -3.4595    9.5665  -12.2130   C
   25.8558  -17.3655  -26.6779   S
   26.1920   -0.2058  -31.0695   C
  -41.4610   29.2861   25.0789   N
   46.9750  -16.4471   11.2258   O
   -1.7804   14.1225  -46.6751   O
    7.6379   16.9311  -49.8065   S
    8.1597    8.3089  -47.0728   C
   -5.2065  -46.1460  -14.7581   O
  -15.4763   21.6737   46.2200   O
   28.7055   44.9005   42.2898   S
   -2.1816  -41.2572   12.6229   S
  -44.0770  -12.2255    3.3178   H
  -48.8772   -6.5266   40.8061   S
  -40.0251  -35.5553   -0.3424   C
    4.5023  -43.5014  -24.6363   S
  -11.2167   -3.2352  -48.8860   N
  -34.6671   25.4480  -38.1709   N
   44.2954   33.3646   32.5328   O
  -20.2046   25.0808    5.3872   O
   18.1584  -16.2095   38.9062   O
  -47.2517  -35.6190    1.0368   C
   23.2561    9.9389    9.7714   S
  -37.1774   -7.1928  -37.4218   C
  -45.8615  -27.4741    5.8519   N
M  END
$$$$
