Generated Ligand
Programmatically generated
Comment line
100  0  0  0  0  0            999 V2000
  -46.9943    2.5555   18.5960   N
  -20.3517   22.3437  -15.5217   O
   49.9079   19.7040  -21.3773   C
  -43.4822   37.1256  -31.8028   H
  -11.1317  -38.8537   15.9620   H
  -37.5693  -48.6565   12.8216   O
   35.4818   25.6718   45.2011   C
  -32.7295   -1.7604    5.7539   H
  -24.7904   46.6951   14.2474   C
  -29.7090  -35.4525   26.0278   S
   26.0066   18.4441    9.3753   S
   -1.5011  -45.4015   29.3747   N
    4.5401   42.9960   -7.2589   H
   -9.0799    0.6939    8.0335   O
  -44.1323  -48.6241   49.1925   H
   18.9231  -38.9770   49.3924   O
   18.5106   28.3258  -46.6661   O
    9.3489   15.1896   30.5489   N
   29.1892    0.8993    4.9397   C
  -10.6896   44.7262  -27.2053   H
   -9.8950   39.1432  -14.2581   C
    8.7525    2.8240   32.6393   O
  -28.1309   16.3177  -27.7872   S
  -39.3196  -11.5885  -10.6328   O
  -28.2345   34.7632   14.6853   H
   10.1055  -22.0312   22.0120   C
  -15.5385  -15.2106  -24.7885   N
   16.8577  -46.4175   28.3033   H
  -29.5590  -45.8596  -40.8335   N
   39.7315    9.9240   -8.1177   H
  -20.3212   33.4469   27.0799   H
  -47.8960  -48.6655   17.7348   N
    5.7330    1.5399   19.3118   H
   18.4826   17.9433   40.0715   C
  -39.4353    4.9561   -1.6225   H
  -34.6023  -30.5226   26.9773   S
   41.5816   38.1169   44.4750   C
   19.1611   32.0162  -19.4328   N
    5.6907  -43.2373   37.8424   H
  -22.3516   37.3641    2.3592   N
   25.8562   27.7913   16.1318   C
   -1.0096    1.9444   -1.1235   O
  -14.2090  -44.2601   38.6625   S
    7.4255  -12.6474  -38.0414   N
  -19.1503  -41.2743   -5.2756   S
    8.0215   40.4810  -36.8746   C
  -14.8133   23.3025  -19.7427   H
  -45.1108  -27.4215   48.9101   S
   -2.3479   16.7289  -17.1260   H
   40.4811  -47.6125  -33.9152   N
   48.9784   -4.2610  -40.5552   N
    9.5230  -21.7981  -36.0829   O
   47.6316   17.6121   30.3530   H
   26.0623   42.0951  -16.4203   S
  -13.8357   26.4732   -8.8965   S
  -34.1499   26.0358   14.9179   C
  -15.2656   -5.2986  -19.8683   N
   31.2928   22.5168  -38.1171   S
    0.9089   10.6350   32.7151   O
   22.2722  -44.9705  -40.2428   N
    5.0360   49.7094   38.2307   O
   39.6632   -9.6067  -36.1563   S
   19.6065   -8.9592   41.7946   C
   26.1198  -21.6799  -19.0548   S
   -6.1893  -13.8456   15.4875   O
    3.8919   -2.5803   49.3608   C
  -47.1070    9.5369   41.9426   H
   30.3903  -35.8229   37.2311   C
   17.9507  -17.6208   15.2102   C
  -33.7418  -22.4972   40.9410   S
   30.4313   21.8385   -4.0570   N
   13.0155  -17.9872   12.1033   O
   41.7225  -47.1353  -39.1299   S
   22.2910  -31.0341   -5.3880   H
  -14.9503   15.3699  -49.1674   C
   40.1608   30.4979   43.0258   H
   43.6162  -22.3833   13.9067   S
   -1.4187   21.0612    1.6626   S
  -21.4126    8.6614  -49.0840   C
  -31.7394   46.1349   -9.8383   H
   27.0436   42.3767  -24.0305   H
  -28.9671  -15.2309  -35.4988   S
   25.4823   41.3488   17.4765   N
    8.9139    2.7042   45.5511   N
   42.4158  -10.3515  -34.0648   O
   36.6869   27.5295  -30.7162   H
  -47.2439   -7.0254   -5.7595   N
   16.7928   21.4037  -40.7624   S
   -0.1588   -3.4406  -32.8961   C
   14.4387   34.4099   18.5443   H
   26.4507   16.5753   45.2581   S
   21.2298    2.4345   -8.7638   N
    5.1792  -34.2582   23.5885   H
  -24.5809   31.9095   22.0434   N
   -0.4106  -40.4521  -42.0232   C
  -34.7227   -3.6774   25.9947   N
   12.6708  -31.5257   40.6662   O
  -12.7373  -17.2879   11.9377   C
   -9.6273  -42.4944   19.7338   H
   24.1951    5.9064   48.6109   S
M  END
$$$$
