Generated Ligand
Programmatically generated
Comment line
100  0  0  0  0  0            999 V2000
   18.6215   -8.4157  -37.2272   O
  -34.0882    2.7681   21.2849   N
   -8.3000  -32.9415  -38.8328   C
   13.5275   33.5692   13.3325   S
  -45.0133  -34.2868   48.8863   S
    0.1720    3.5818    1.9862   H
  -48.0342   48.4057   -9.4085   N
  -26.5589   44.5459  -17.3014   N
  -19.8503  -42.5114    9.2298   O
    3.6651  -28.3440  -47.3319   H
   -5.8281   44.4265   26.6839   O
  -47.9097  -14.4851   21.9318   S
    0.6136  -11.6688   39.4372   H
   13.6189   25.3464  -24.1756   N
  -30.0736  -39.2674  -10.7800   O
  -12.3288   45.3417  -10.5046   S
    1.5499  -47.3594    8.8168   O
   41.5346    1.2651  -25.7161   S
    3.6015  -31.6293   11.6086   N
  -34.2693   -6.1912  -24.2712   C
   31.1682  -47.3490   22.7309   S
   -1.1844   14.4507   31.2256   N
   13.0904   -9.4099    7.2461   C
    4.8099   -3.2101   34.0906   O
   42.8188  -11.6889   -6.3012   H
   25.1186   31.9995   20.2699   O
  -27.2419  -21.9922   33.3149   S
  -26.3956   15.0345   35.5712   S
  -17.3808  -20.6851   27.2913   O
   36.6555  -47.7132    0.9652   C
  -44.5798  -15.7843   -6.1893   C
   13.8630   42.0610  -18.4038   S
  -17.1610   25.6860   15.2783   S
  -47.0362   30.6303   26.4606   C
   -0.0554   23.5108   45.4536   O
   17.9739   24.3415   49.6582   N
    2.6801   -3.7471  -36.1804   H
    3.5636    2.3076   -7.6188   O
   10.1693  -18.6987   16.8735   C
   16.2346  -11.3320    4.4184   O
  -35.6550   -7.7832   -4.2388   H
   17.1612   20.9423  -21.7366   S
    6.4848   28.4868   -7.7610   C
   -4.4543   -4.0671  -41.2818   H
  -42.9301   12.8351    3.5491   N
  -41.4031   25.2269  -23.0179   S
  -35.9143  -41.8666    2.7426   O
   46.0900    4.4921  -35.6130   S
   -2.5776   49.3499   38.6545   N
   44.7350   12.5178   33.3921   C
   41.8343   43.2489  -17.1742   N
   20.7894   19.3071  -17.8855   N
   -7.9188   42.9523  -45.2228   S
  -16.1095   15.9608  -21.7508   S
  -49.7809  -13.1536  -38.8725   O
   34.6130  -14.4158  -24.0755   C
  -29.8998  -13.1398   28.9534   C
  -12.6941   22.1782   14.9520   N
   32.2362  -46.6575   42.8893   N
  -47.6977    0.8773   33.9847   O
  -44.7143  -43.6272   48.6684   H
   -6.2597   44.8559   16.3044   S
  -42.5537   47.8113   38.3247   C
  -36.3348  -44.0197  -28.0241   S
  -17.2331  -36.5267   47.5549   C
  -24.5808   49.4322   42.2507   N
   26.5549  -20.6003  -43.4192   C
   -3.8333    2.2789  -14.0348   C
   10.2753   -0.0308  -11.6395   H
    2.3516  -11.4843    3.2364   S
   28.3711    9.8339  -14.3607   C
  -30.2270    7.9655   47.4609   H
   37.9719    5.3612  -46.3842   O
    1.5661  -33.2190   15.2140   N
   -7.8214   27.8487    5.0823   S
  -17.0330    4.3346   16.3931   C
    6.1361  -37.3708  -38.6519   C
   -7.0671  -45.4378   24.8310   O
   32.2352  -16.7626   -2.7937   N
   19.0948   -7.8311   38.3849   H
  -25.5510    4.0872  -35.6726   N
  -42.0507  -44.7641    4.2973   H
   40.1425  -16.0467  -17.0386   H
   42.7800   16.8571   10.1411   O
  -15.4972   47.1067   49.5057   H
   32.6890   48.8518  -20.0436   S
  -16.5600    2.0375   44.0253   C
  -33.8392   25.8376  -47.1467   H
   24.6431  -19.6590    5.9371   N
   16.6511  -21.1129  -24.0039   H
    0.1644  -32.4669  -32.8195   N
  -19.3338   28.4858  -38.7519   C
   -0.8781   26.5413  -16.1300   N
  -25.8975   34.7271   -3.2808   H
   37.3647   -3.8117   -7.1260   C
    3.1469   33.3539   -2.2511   C
   45.5039   11.0452  -44.0274   H
   27.0553  -37.9047    3.0045   S
  -12.5357   25.1335    1.7437   H
  -25.7921  -12.1248  -16.6799   N
M  END
$$$$
