Generated Ligand
Programmatically generated
Comment line
100  0  0  0  0  0            999 V2000
   38.6612  -19.3455  -30.3301   S
    9.8155  -19.7504   -6.8873   N
  -22.8466   36.4309   15.6951   C
   -1.6218   17.1327   18.7823   H
  -38.1020  -13.0879  -48.7079   C
   -0.7911  -15.1295  -26.7750   O
  -30.6183  -21.7230    2.1496   C
    6.2085   21.6656  -35.5463   H
   28.3560  -31.5408   19.7082   S
  -40.0809   22.8722  -43.0382   H
   27.3971    1.3600   28.7826   H
  -22.0612  -49.3372   -8.7378   N
  -30.4601  -23.5949  -14.3361   S
  -27.0320  -27.5561  -36.3813   H
  -43.7432  -29.3029  -30.5971   H
   44.9705   16.5234   -3.4036   S
   11.8986    0.6042  -47.9983   C
  -12.7379   26.2094   16.6662   N
   25.9947   27.7347  -41.9451   C
  -20.5406   47.6668   26.0689   O
  -42.4426   -5.6310  -44.6210   N
   37.7722  -31.0781    1.4914   S
   14.0580  -34.0575   41.3550   C
   43.0588   42.5061   30.4446   N
   47.8920   41.3655  -40.4866   O
   48.2559  -32.7843   37.9023   N
  -49.2688   17.8514    1.4654   C
  -28.3882   -5.8327   -6.9583   N
   -9.8565  -16.2182  -42.5059   H
  -11.5437   15.7911  -34.8386   N
  -32.2849   -1.7995  -49.2627   N
   -9.1470   15.6531   47.1309   N
  -44.7702  -12.5312  -26.8233   S
   16.3942   43.4675   -6.6945   N
   33.6207   34.5386   14.3550   S
   26.0351   43.0267   27.3614   N
   46.9280    1.8932   -5.4182   S
  -27.8395   45.4547   38.7922   O
   15.9271  -24.0376   35.3368   S
   18.6817  -48.4233  -37.2324   O
  -18.2020  -32.2909  -37.0791   N
    1.4539   21.7251   23.4821   O
   13.7953  -27.8350  -25.2614   S
  -45.8239  -31.7104   -7.4382   S
  -37.5265   17.3231   18.6271   H
  -40.6493    1.1962   22.0226   S
   34.5602  -10.0833   20.1615   S
  -34.0092   -1.3193   -6.5220   H
   -0.7626   40.1162  -40.3295   C
   37.6321   -5.3576   -0.9477   O
   14.6115   34.8027   38.6307   S
    6.1411  -18.6303   11.9664   S
   32.8636   -1.6132  -29.7697   O
   -1.9989   -3.6077  -36.7643   S
   -7.4176  -48.6288   39.3929   H
   45.9378   14.4296   14.5905   C
   -8.7141   35.3661   29.2591   S
  -43.0971  -23.4424  -16.8400   C
   34.9808    8.1661   10.0974   C
  -17.8591  -23.9316   46.7381   S
   48.7679  -39.7654   47.8430   H
    8.1957   -6.7577   15.8994   C
    8.1120  -24.0306   30.4452   O
   32.7726   24.4972   48.8631   O
   38.8367  -25.7590   38.4673   O
  -21.0546  -43.3491  -21.0792   C
    6.3307   33.9480    3.5722   H
  -15.1872   -9.4318   -3.1193   N
  -16.7311   38.0175  -18.7981   S
   30.4249   14.5144   38.8980   C
  -28.4524   40.5934  -32.2529   O
   41.5931  -17.2691   19.2321   N
    4.7946   43.8086   13.9495   O
   18.3793  -40.8120  -37.3161   C
  -45.9065   -9.6340  -21.4683   S
    5.7974  -41.0268   18.3477   N
   44.4633   -2.3412   34.4694   C
  -40.4876   48.0736    7.5744   C
   32.8713  -26.6895    5.2316   H
    5.2842   34.5547  -18.3352   H
   47.4536  -23.3946    1.1401   O
   49.4802   -9.0761   21.9066   N
  -46.0735  -15.8398   10.4083   S
   48.9057  -27.5475    5.8989   O
  -34.0372  -35.8919   36.3552   H
   14.7064   12.5515  -10.8419   H
    2.2376   11.0410  -10.9374   N
   -8.8164   48.1651  -32.3663   O
   46.8665   -2.6082    6.3237   H
   38.3101   24.5964  -29.3841   O
  -30.0378  -27.1558  -31.8327   H
   -9.0483   49.2522   47.5576   H
   45.0403  -21.5551  -40.7772   C
  -36.1277  -43.0264   33.4018   O
  -22.4060  -28.0577    4.9178   C
  -29.2208  -21.8579  -30.3976   S
  -38.3353  -33.3918  -11.0619   C
   39.8340  -39.5885   -8.3240   C
   45.4677   30.5887   27.9861   C
   16.0103   -3.4159  -23.3694   S
M  END
$$$$
