Generated Ligand
Programmatically generated
Comment line
100  0  0  0  0  0            999 V2000
    8.5428  -14.3662    0.7522   S
  -25.1352  -39.1474  -49.2469   O
   21.3285   24.7711  -49.5777   H
  -35.2275    4.4604  -43.9827   C
   32.4639  -21.9541  -38.5754   S
   36.7013  -33.7733    9.3089   O
   -0.9008   11.8028  -14.1630   C
  -40.1726  -47.9623   20.2639   O
   -4.7963   43.1551   28.5172   S
  -13.5931   24.3115   30.0781   C
    2.4017   16.2610  -22.3880   O
   40.7272  -31.7880  -39.4928   H
   19.7097   -8.4594   31.1398   H
   12.4148  -47.3689   -9.1098   S
  -47.8568   31.7797  -49.7013   S
   38.7471  -29.8048   45.5682   C
   26.3501   46.7384  -47.5152   N
   35.7958   -6.1419   37.7834   S
  -29.4692  -20.3578  -18.0185   N
   45.6316   37.9098   22.9613   H
   34.7652   14.4576  -47.6823   S
   39.5792   14.3967  -49.1554   C
    8.2513   -6.2900  -15.4932   C
  -36.8095  -21.8819   -2.7284   O
  -13.0422  -30.9055  -21.4901   C
  -40.9734  -29.1557   26.2596   O
  -37.7285   47.3407   -6.0616   C
   17.3487   49.5590  -32.4767   N
   38.9508  -30.9618  -49.8673   N
   48.7375    2.7651  -34.4671   C
  -44.8751  -39.9849  -49.8634   C
    2.6026   41.8017   42.4575   S
  -12.6809   -4.4394   33.1599   C
  -20.4636  -45.4449   -6.2451   S
   28.5118    7.3303  -41.3132   C
   11.3082   30.5843  -36.8266   C
   10.5011  -31.7421  -23.2427   N
   -6.0549   -1.3282  -15.2600   H
   43.1597   22.2541   28.6925   N
  -37.6632  -42.3513   47.3211   H
   -1.0339   45.6251   -2.5835   N
   39.9024   25.5635  -13.2998   N
   -4.7232  -13.7483   39.7466   H
    4.7833  -34.3987   13.7951   H
   -4.3513  -12.8449  -45.4510   N
   -7.1798  -35.0962  -45.1800   C
  -44.1069  -15.3042    1.0077   C
    1.2019  -17.1920   36.5838   O
   -3.0919  -37.4878   -4.9307   S
  -30.7140   -5.5846   37.2246   N
   42.5769  -13.7480  -27.9566   C
  -31.5111   21.6306  -34.6419   N
   49.6973  -10.4038   13.4345   N
   30.8961  -48.9852   -8.8755   N
  -30.2413   36.4333   45.2388   S
  -29.3070  -34.9268   -3.9931   H
   -5.8409   31.7177   27.3931   H
   31.9551  -25.5643  -24.9069   N
  -45.6420   46.9827   48.6461   H
   37.5304   -2.2541  -44.5260   O
   28.1576   38.0226   42.2519   N
   34.6558   18.7417   43.6426   C
   30.7953   11.5900  -46.3077   C
    8.4815    2.4681  -27.0513   H
   26.2874   40.9079   27.9652   C
  -33.7641   36.2137  -25.8462   H
  -17.4744   42.7305   -9.5528   N
   28.1034  -43.0778   45.8249   O
   44.8884  -44.1576  -21.9347   H
  -21.5081   -2.0034  -21.5759   O
  -16.3969  -33.3975  -29.1413   N
  -28.0650  -31.7719  -21.9054   O
  -30.2088   13.0062   17.3769   N
   39.7742   48.5482   33.4721   S
   -0.7672  -22.1394   38.5031   O
   10.3499   -5.8757   -5.2417   S
   25.3886   26.6952   27.9156   S
   49.3030   42.9332   43.1378   N
   -2.5886    4.8512   14.8615   N
   19.3894   26.8753  -29.7102   C
   16.4491   19.5643   40.5860   N
    8.2674   19.4117   -2.5654   H
   33.7897    8.9098   15.7768   C
  -36.0223  -32.6122  -20.8967   H
   40.9514   45.1705   -3.6146   C
   27.8147   18.1612   33.2442   N
  -43.7918   10.1309   37.7136   N
   38.8352    8.7685   31.1192   S
   41.4595    5.4061   35.6096   H
   -7.9249   -1.4555  -41.1842   O
    4.1145   26.2249   11.9442   O
  -47.0822   45.5072   40.9976   S
  -22.2764  -25.1328   16.1524   H
   -5.1718    2.1652  -33.9878   S
   -8.5066    0.7607   16.8646   O
    5.2415   46.5072   23.0323   N
  -11.7258   42.0070   26.9608   H
   22.0819  -39.1691  -37.5754   O
  -38.9799   36.5986  -25.2243   N
  -31.3610   -2.8567  -23.3290   H
M  END
$$$$
