Generated Ligand
Programmatically generated
Comment line
100  0  0  0  0  0            999 V2000
   10.1493   10.4620   17.8427   C
    7.9570    1.9487    3.2000   H
   38.9781   37.9398  -42.2292   S
   19.1541  -48.0623   16.3158   S
   24.6708  -11.6320   19.8265   H
  -13.4632   20.0314   34.0144   H
  -39.4359   47.8006  -31.5295   S
  -49.4800  -46.7039   -9.5409   N
    4.0265  -20.2890    3.4628   N
  -20.7860  -12.3097  -41.2783   H
  -43.2691  -30.8121    7.9376   C
   15.1292    6.7981   18.0953   C
    7.3606   13.5341   11.2399   N
  -44.3883  -36.4385  -44.8915   O
  -29.7469   31.7116   22.3483   N
  -14.1721   21.9834   -0.6112   N
   -5.7697   22.4731   37.0007   H
  -34.9718  -18.0846   37.8845   C
  -33.9375  -24.4737  -34.1440   C
   38.8858  -21.4170   -8.4332   S
    2.2273   24.2282  -13.2874   H
   11.6532  -12.5057   -9.3088   O
  -19.6652   33.6635  -37.7278   N
  -46.3031   14.3540  -18.9770   N
  -20.7909  -24.7234   16.2875   O
   45.1515  -39.7987   -7.3450   N
  -49.3253   -3.3600  -42.9797   C
   -3.1713  -47.6332  -30.4597   O
  -13.9931   25.7679   -3.5520   O
  -17.8814  -31.5176  -28.5374   O
  -32.0747   12.4367   -1.1889   S
   26.2255  -10.5924  -30.1390   H
  -41.3184   41.3937   35.2639   N
   43.5354   35.8872    8.0405   H
  -28.3686    6.2379   16.2528   N
   -2.2122    7.9965  -17.8906   H
   23.4493  -32.7549   34.3518   S
   25.4815   -1.2324  -18.7241   H
   49.4837   44.9709   33.5731   C
  -15.2991   32.7340  -36.9545   S
   22.3451  -33.6322  -16.7636   N
   -9.2548  -45.3362  -36.6555   O
  -25.3786   32.6639  -42.8254   H
  -33.5644   21.1266  -41.6158   O
    6.1642  -34.4991  -42.7147   C
   19.6575    5.3421   27.8918   S
   37.9434  -10.3906    3.3431   S
   -5.0814   49.1108    7.0018   O
    0.3597    4.1538  -39.2304   N
  -33.8090  -42.5692   41.0044   H
   -1.7011   39.6257   37.7618   H
  -49.5561  -34.2521   12.5067   H
   28.5082   -3.6662  -33.8421   O
   34.4914   29.8981   13.0278   N
   49.1130   28.1848  -35.4394   H
    6.9622   25.6733   43.8375   S
   -1.4732  -43.3062    0.7373   N
   15.4016   -8.7550   40.2692   S
  -26.1157    0.3962  -38.3922   O
   37.4032   26.5146  -32.8705   H
   39.1700  -32.3459   26.0740   H
   -3.7474  -13.4849   37.0866   S
   15.8756   10.8473  -14.0360   C
  -16.7491   24.0231  -11.0551   S
  -30.5048   41.7903   21.3951   N
   -9.0307   14.6017   30.8578   C
  -44.3499  -14.4493  -22.2955   S
  -35.7735   15.6073   46.6875   C
  -13.8010   34.6756  -26.5287   H
  -25.2816  -48.8573   33.8983   N
   33.1293  -32.3348   40.3642   H
    0.6085  -35.1940   18.2460   C
   25.5940    7.5110  -38.1377   C
   40.5120   16.3281  -25.7630   C
    1.1221   25.8304  -37.6255   N
   38.1348   -1.1546  -23.9444   O
    5.4070   23.9771  -32.1753   H
   33.5966   -5.9825   31.7151   O
  -23.1000  -20.0593  -17.3716   H
   18.5999   -3.4366    3.7922   O
   14.9435  -40.1171  -10.9938   N
   40.5490    0.5770   31.8569   N
  -42.7100  -27.8421  -48.4640   N
   41.6611  -39.9780  -46.6845   S
   -8.3715    9.7071  -26.6146   H
   28.2654   25.9092   26.3206   N
  -11.4926  -34.0473  -49.2099   C
   -6.3163   15.3623  -14.1976   O
  -47.3751   23.9200   -3.3769   C
   48.3674   32.3637  -23.9311   S
   -1.4183   -1.4439    6.1626   O
   11.5167    3.0161    7.6579   C
  -15.9977   47.9362   29.6346   C
    5.3522  -29.8772   -8.9131   O
   47.1640   31.3905   23.7740   N
   18.2924   46.5910  -36.1930   C
   -6.7972   -7.9459  -23.8243   C
   29.4296   13.6728   -6.8476   H
   23.7444    1.9831   42.0848   C
   44.6279    3.5663  -20.3774   N
M  END
$$$$
