Generated Ligand
Programmatically generated
Comment line
100  0  0  0  0  0            999 V2000
  -16.2863   10.3150   28.0390   C
  -13.2192  -47.6046   14.9823   H
  -27.9567   34.3494  -29.5541   N
  -17.8166   24.6472  -20.8131   O
    9.2977   25.8636  -45.5287   C
   11.6630  -46.2157  -38.5943   S
  -49.8763  -14.3162   26.1328   O
  -28.3672  -49.5100   26.9412   O
   -6.3947   42.4367   41.2906   S
  -49.7965  -12.8358   37.7427   S
  -35.2452   33.9953   47.7012   H
  -21.6270  -21.2478    8.3249   H
   38.6656   42.7549   23.2074   C
   -8.2420  -22.5723   45.9982   H
  -20.5112   -1.3549    7.0807   H
   36.9344   40.9383   -6.9825   S
   -5.8715   -9.6478  -23.5269   O
   -2.6975   29.4597   -2.6722   O
   15.3080  -40.9430  -47.1550   H
   46.0163    6.1720   13.7562   H
  -45.0958  -45.3434    3.4052   C
   36.6952   35.3606  -42.8113   S
  -21.9150   48.5354  -29.4699   C
  -19.7232    6.7909  -42.0322   H
  -36.6127   16.0898   -4.1054   S
   -0.3355   16.0987  -38.0676   S
  -45.1472   24.3219   20.7845   C
  -14.4221    1.7991  -45.8235   O
   31.8817  -48.0922   22.8514   S
  -15.6957    7.4464  -32.6456   S
  -45.8565  -23.3808   -2.9265   O
   11.3442  -21.1007   49.4273   C
    2.8145  -20.8879  -28.7647   S
  -32.3492   49.8786   11.0634   O
  -36.9652  -27.9222  -13.2021   O
  -30.3373   38.9898  -20.3583   N
   -8.1117   29.4342   -1.9016   O
   18.9471  -15.6306  -17.3602   H
   40.7160   25.8269    5.3289   S
   11.9250   13.1652  -17.7342   S
    2.8228    1.8712  -18.2857   N
   20.2779  -43.0054   34.1660   N
   33.5253    9.4172  -48.5976   O
   12.3511  -39.3098   26.9682   O
   41.2533  -15.6581   47.5544   O
   11.3836   43.2930   16.0982   C
   29.7903    0.5716   37.1672   H
    4.4020   14.3416   -2.5244   H
  -21.2767   -5.0689   -9.8997   S
   28.5148   13.8914   -5.4742   O
  -44.8777   25.4906  -32.6513   C
  -28.3605    6.1052   45.1607   O
  -12.8938  -16.0941   13.0287   S
   24.6755  -23.1775   20.6093   O
  -49.2968  -28.3331  -48.5311   N
  -20.2645   13.0786   -0.8595   O
  -24.3935   28.9358   27.6767   H
  -22.4282    7.2194   14.3642   N
  -26.7199   14.4158   14.5671   S
  -36.8794  -37.7147  -44.1038   H
   40.7570   43.7388  -14.4437   H
  -46.1109   42.3630   -2.6819   H
   48.9685   -1.1764   35.7405   S
   16.6762   23.1078   33.6727   O
   48.9036  -23.0700  -49.3606   O
   31.2239   -2.4297   42.2169   C
   37.3883   44.1141  -10.9258   N
   13.5964   10.5142  -37.1073   O
    9.0768  -49.2342    2.0726   O
   -7.3437   36.4603  -33.2426   N
    0.2462   25.2128   -9.2173   H
   49.4942   43.2303   21.5562   O
   -0.4224   -0.0981   -6.9500   N
   41.6761   -3.4167   49.6765   O
  -37.6095  -38.8926  -24.1364   O
   33.6797   33.2725   17.1825   N
   45.0716  -48.8902   -9.3738   S
  -27.3295  -28.7150   43.3824   O
  -33.5315    7.0089   35.0534   N
   31.0566   29.4687   46.9442   C
   10.4811  -31.9729   31.3265   C
  -30.6916   25.5300   34.4765   N
  -37.7373  -41.3397   27.8142   C
   18.8555    7.5562  -16.2551   O
   22.6292  -31.8739   -1.5445   C
   14.6351   11.7307  -35.9515   S
    8.5110   42.9446  -40.5767   C
  -34.8980  -47.9187  -42.4356   O
  -11.5091    4.8432  -36.1664   N
  -48.3912    2.7964  -25.5535   S
   -4.0999   30.3838  -31.0814   C
   34.4426   44.7687   -6.1626   C
  -23.6794   -3.4408  -22.7710   N
   26.2322  -40.4444   -0.2952   C
   32.3233   -7.6040   -7.9339   N
  -26.9336   27.1223  -45.6988   H
  -31.4618   27.6381   15.4859   S
  -39.9305    7.6008   25.3337   O
  -36.6287   31.7381   42.0930   C
   36.0604  -25.0584   25.5994   N
M  END
$$$$
