Generated Ligand
Programmatically generated
Comment line
100  0  0  0  0  0            999 V2000
   -9.9759   10.3048    6.0391   C
   -6.9476   14.2223  -45.9039   S
  -18.3884   21.0431    5.8514   S
   -5.3881   27.7098   45.8274   H
  -21.6512  -21.7172  -26.5455   O
  -28.6274   35.1966  -35.0589   C
   47.4002  -33.5196  -17.7997   C
    0.2156   45.2346   49.4363   C
  -41.0242   31.4863  -30.0782   S
   33.9570   31.8625   13.7610   N
  -11.3805  -43.3945    2.2179   C
   13.4777  -24.1568  -26.2889   H
    1.3306   41.4883    6.6088   H
  -32.1941   39.8646  -17.8320   C
    5.7507  -12.8472  -20.2553   S
  -45.4221  -43.9649  -45.2821   S
  -40.1897  -44.9626   41.1515   H
   31.8008   47.7300   -7.8648   C
  -38.7789   30.9244   10.3590   N
   15.6965   46.8069  -34.9866   N
  -47.5417   48.1062   32.8598   S
   30.3350  -18.3204   42.7181   C
  -17.9464    9.0893    9.0550   C
   -7.5305   -3.1467  -44.8610   C
  -11.9471   22.8707  -44.4252   C
   -7.1827   30.3108  -17.3145   S
   -7.9405   44.7590  -31.7928   S
  -22.5901   41.4255   32.0971   O
  -46.5851  -16.3577   32.6613   S
   25.4476  -36.8518  -30.5302   O
  -28.3908  -30.5580  -12.7595   S
  -33.5448   39.9228  -24.5167   C
   17.9540   14.4943  -22.4068   N
   47.7534  -27.3818   -2.5379   H
    1.4213  -47.2124   -4.5287   N
   -9.7945   -4.1164   -5.1411   S
  -41.6833   21.0106   41.1174   S
   47.9145   14.1017  -42.8718   C
  -14.9965    2.8381  -15.3197   O
  -40.7466  -20.7061   -2.4668   N
  -12.6577   -4.0010  -31.8407   S
   -4.8144   19.9935   18.2289   S
   35.9944  -12.1622  -25.9176   N
  -18.0611    8.8154  -32.6905   O
  -35.9286  -13.4601  -26.0255   H
   26.1484  -49.8569   47.2191   H
    2.9692   36.6289  -12.8875   N
   36.2363   34.1524  -30.4626   O
  -13.9821  -36.8881   22.6540   H
  -45.8055   -6.8292    4.0650   N
   21.1226    0.0850    7.1989   S
   43.9532  -44.3332   -7.4656   O
   17.8953  -11.2209   21.1664   O
   37.9067   -4.0463  -48.9994   O
  -37.6480   31.4724    2.8217   O
  -19.3978    5.0973  -43.3389   C
   -7.7258   -0.6363  -23.1150   O
   18.5101    3.9406  -30.0223   C
   -4.5825   41.8184   45.2286   C
  -35.8437   -5.8703   -8.0994   O
    6.8774  -46.1073  -27.4455   H
  -38.6624    2.5249  -24.0677   H
  -42.3737   27.7775  -45.5850   O
    1.7739  -44.6258    4.9770   S
   16.2791   44.0770    8.3495   S
  -41.0236  -35.4187   -0.4851   H
   30.9189    6.1396  -34.5735   S
  -45.2387   37.1329   -2.1350   H
  -27.4375   -1.9675  -37.5516   H
  -32.6557  -15.1412  -29.5427   S
  -42.1675  -26.2279  -48.1044   C
  -40.1058  -19.2870   38.5027   H
   40.8360  -27.6129   -0.3095   S
  -24.5801  -24.9058   -1.7714   H
  -38.1178  -40.9392  -41.2570   H
  -23.4958   30.8061   39.1405   O
  -24.3412  -17.2347  -20.5044   H
   39.8665  -34.3128   -1.3675   N
   -4.5766   14.8564   33.2375   C
   31.0277  -35.4345  -14.2325   S
   33.8035    4.4890   43.5614   O
    4.5954  -20.4246    1.6137   C
  -39.0887  -12.0493   40.8968   S
  -34.8945    8.2387  -15.2577   H
  -18.1443   23.9180   39.8127   H
    4.0057  -38.1808    3.4111   C
   22.2044  -32.8713  -14.8806   O
   31.3756  -20.4363   13.7574   N
  -44.8846  -13.0315  -48.4036   S
   19.6994  -23.5457   39.6942   S
   15.2667   30.5302  -14.3598   C
    6.5877   32.4509  -12.7430   S
   20.9809  -16.1961   44.4919   N
   25.9397   20.0890   12.5778   C
   23.1288  -22.5900   -1.1352   O
  -16.8016  -11.2411   46.6486   C
   43.1043  -28.5600  -17.6343   N
  -29.6237   10.7415   31.1869   H
   34.2324   45.8600   47.7467   C
  -43.7638  -37.8072  -48.4539   H
M  END
$$$$
