Generated Ligand
Programmatically generated
Comment line
100  0  0  0  0  0            999 V2000
  -19.0151   10.8305   40.1466   H
  -22.3205  -24.8052  -43.8573   S
   15.1379   -9.0752   -8.2472   H
  -24.3502  -43.8553   32.4253   S
  -24.3244   13.6764   45.9330   S
   41.6357  -43.1697  -26.1766   H
  -39.4714  -49.2970  -47.9645   O
   -8.7667  -25.5970  -29.3743   S
  -39.4258  -10.5082   -3.7376   H
    6.7354  -40.5706  -32.7838   C
   25.1433  -47.8755   20.4457   S
   36.9351  -36.4966  -19.0430   N
  -28.3668   22.7813   38.5987   N
   10.9009   -1.4054   39.1965   H
   39.1268   -9.0424   23.8263   N
   34.9378  -40.1642   29.6083   C
    7.9001   48.3279    4.0408   H
  -35.0032   35.1537  -38.7404   S
  -12.8510   32.9307  -10.8003   N
   33.6672   34.6251   42.2683   O
  -27.9285  -33.3955  -46.7461   N
    6.3194  -27.7163   17.9463   N
   -9.5260  -15.5060   15.2217   H
  -47.2703  -32.1905  -28.5081   H
   49.5517   -0.7975    0.3916   H
   -9.2298   48.5515   16.6865   C
    9.0768  -29.9127    1.9554   O
   32.3170   29.1234   15.1600   O
   -2.9607   43.5661  -48.0126   N
  -11.5718   -2.1912   41.2619   C
  -44.2430  -23.9217  -18.9986   H
   21.7149   39.7721  -17.4485   O
  -43.1538   -5.1284   34.0045   H
  -23.4818   36.0311   -4.1692   H
   43.7174  -10.1773  -47.0626   C
   33.1314  -44.3789   17.4208   C
   35.1688  -45.5180   -8.0102   O
  -45.3673   -9.3400   46.8744   O
  -27.6611   11.0312  -42.8641   N
  -12.4584  -40.3987   21.2676   O
  -11.0170   26.3877  -37.4678   O
   49.2807   19.8321  -37.8575   N
   38.2271  -39.6004    6.7640   N
   24.5039   19.6050   29.4556   O
  -42.0530   10.9256  -35.7077   S
  -36.8697   48.5400  -21.1031   O
    8.4535   -2.9155    3.4276   C
    4.4607  -28.3028   30.1935   S
   31.0762  -48.9549   24.2972   O
   34.7570  -16.4998   -3.0625   H
    3.3263   -9.8263   14.5048   N
    3.5258   47.2566  -23.6661   O
  -10.6202  -44.2691  -28.2525   H
   17.9027  -35.5523   -7.0164   O
   -3.0406   -8.8534   -7.0055   H
   27.4501  -42.4635    2.6391   N
   42.1898  -40.0410  -16.4962   O
  -39.3280   -2.7074  -28.5939   C
  -24.6938  -12.1982   12.1852   C
   32.6276   -5.9565   -8.1572   O
   29.9070   -8.6448  -40.4885   S
  -26.3665   17.2736  -31.7198   S
  -22.2559  -22.0510   -5.1783   O
  -37.2719   18.2319   47.6794   N
  -35.3444   36.9335  -48.6423   O
   33.2701   25.3428  -26.3217   N
  -35.1016   23.0091   30.5973   S
   44.1635  -34.9402  -41.9227   S
   48.4838   32.8196   32.1653   C
  -12.4134   21.8566  -24.9523   S
   30.2237  -38.9508  -32.0691   N
  -48.1101  -31.8117   -2.6496   O
   43.2321   26.6108  -16.5759   H
   24.3059  -10.4853   24.7830   N
   26.4795   16.3623  -47.8706   H
  -10.3417   41.9315  -35.6781   S
    7.2836   49.3330   -5.8041   O
  -44.3566   28.9964  -22.9427   O
   41.0562   44.2255   42.4756   H
  -49.9967  -40.5749    4.0611   O
   49.6551   22.2511   49.3676   O
    4.6235  -48.1957  -45.2820   H
  -17.6662   -1.9702   45.6122   H
   22.7435  -39.9629   16.5292   H
  -44.3825   -0.0389   10.8094   N
   34.5702   16.5681   -9.5506   S
  -13.8666   29.7905   24.7182   H
   -8.0851   45.6402  -47.3237   H
  -22.5946   46.0342   32.1374   N
   49.8236   17.3183  -35.1445   O
  -29.5218   12.6116  -19.9208   H
  -48.1398  -18.7930   15.1699   N
  -25.9649   28.0279   34.0715   H
  -26.4166  -35.3185   12.9332   C
  -29.5059  -14.5616   26.2169   N
   29.9192    2.4092  -25.3351   O
   40.9621   36.1831   -4.9639   N
  -38.7239  -15.3943   -9.3840   S
   11.7446  -15.2891  -36.6346   C
    3.6155   11.8391  -24.2074   N
M  END
$$$$
