Generated Ligand
Programmatically generated
Comment line
100  0  0  0  0  0            999 V2000
  -24.8316   48.8191   13.2071   S
   29.7427   39.6144  -23.6265   N
  -13.0284  -45.6996   12.6180   S
   -8.4702    4.8192  -19.4285   N
   32.6625  -34.9044   -0.1579   C
  -16.0927  -23.0800   37.2718   N
   -8.6796   15.1034   -1.2183   H
  -37.2856   19.2244   30.6543   O
   -6.9328   49.9601  -44.6951   N
   48.3867  -36.6560   27.4470   S
  -28.5920   45.4295    2.1515   O
  -34.1600  -35.3697    5.9088   C
   -6.4434   48.1600   16.0108   H
  -17.3736    3.5014   -7.6020   O
  -10.4685  -19.4412   27.6818   S
   24.6232   31.8161  -19.9924   S
   31.2561   46.6203   45.3941   C
   -2.0245   34.4840  -17.0015   H
   28.1936   14.5953  -46.4292   S
    2.0911    9.3360   -6.6362   C
  -38.8036   42.5309   -1.4841   N
   43.2048    2.1545   33.8039   H
   17.6795    5.3463   43.3216   N
   40.3287  -25.3433  -47.9364   S
    2.1827  -26.0080   46.0519   S
    1.6775   48.1633    3.3482   N
    6.0039  -46.2206    5.0713   S
   -1.7241  -18.0687  -36.0077   O
   -6.6058   12.8417   15.2887   O
   32.9289   34.9301  -19.5600   H
   37.0990   32.0729   -3.1517   C
  -10.9897    6.1711  -33.9234   H
   -0.5911   21.7815  -18.4421   S
   -7.7552  -22.8538  -35.5209   S
   -8.9532   13.3414  -19.4476   O
    5.0033   12.2265   16.7583   O
   44.5540  -24.7113   35.5694   O
    7.7689   -7.8937  -32.0228   O
  -11.2671  -28.0087   34.0254   C
   10.0618   27.9842  -12.1502   O
  -31.6165   13.5473  -46.7145   C
   48.2651  -41.5741   11.7159   N
   44.8389    6.3908  -21.1355   H
   -2.3404   14.8393  -33.6409   N
  -16.3341   38.3393   17.5199   N
  -31.2004  -18.9501   -8.8628   H
   18.7326   35.7214   27.3269   N
  -32.0827   29.4921   23.7936   H
   23.7613   -8.8577  -15.1551   O
   39.0647  -29.0411   40.8071   N
  -29.4050   18.0713   45.5585   S
  -30.5815   36.9975    8.6102   O
  -36.0444   10.9000   19.7251   H
   -5.9710  -39.1839  -23.5763   H
  -20.3472   -2.4526  -30.7907   S
   48.6178    8.4962  -22.8383   H
   31.5165   30.0616   -2.8066   C
    7.2686  -20.1823   28.3773   H
   27.9515   36.2765  -23.8521   N
  -19.3142   25.0143   12.2011   N
  -24.4206  -16.4067   37.9249   C
  -32.5251   36.0691   43.7577   H
   49.1613  -31.6477   -5.7046   C
   27.9677  -17.6531   35.1758   C
   14.6576   40.3557  -31.9540   N
   23.0416  -15.2115   36.1535   N
   27.1362    6.2038  -17.7842   O
  -19.2521   49.2214   34.3264   H
   35.8035   30.9984   -2.1313   O
   13.8085  -25.2697  -32.2339   O
   34.0850   49.7798  -16.6899   C
   26.1766  -33.0157   31.8897   H
  -18.6527   -8.3864  -47.9640   O
  -38.5748  -25.4814  -44.7960   N
    6.3984  -26.2223  -48.1826   H
    1.4670   -7.7377  -15.9468   O
   -1.0334   33.3363  -44.9486   S
  -49.5788  -22.8151  -17.4472   H
   14.5549   10.1799  -14.6940   O
    9.1908   35.8274  -37.0762   S
  -24.2808   -9.8587   23.0769   H
  -40.2881   -8.3025    7.4688   O
  -17.2218  -47.3086  -46.1492   C
  -24.7124  -17.1863   38.9785   O
  -15.7358   10.6872  -32.8992   H
   14.3856  -32.3593  -41.5966   S
   28.2497   -0.0269  -34.9604   N
   14.9036  -30.4990   27.0271   H
  -13.1398   42.8317  -23.9780   H
   -2.8948  -23.9954  -38.7251   C
   39.5026    0.5326  -40.7936   S
  -12.6700  -27.1882    3.4378   H
  -14.8985  -18.6226  -33.6633   H
   44.8149   14.6738  -22.2629   S
   40.5655  -21.4000  -36.5722   N
   28.6340   -4.0717   -6.6273   C
   49.2812  -18.8539   26.1399   O
  -16.2426   47.4644   19.5768   C
   25.0633   -5.1060  -21.2676   N
   18.1302  -28.5419   45.6982   H
M  END
$$$$
