Generated Ligand
Programmatically generated
Comment line
100  0  0  0  0  0            999 V2000
   26.7004   41.3997   -4.3703   H
   46.7263  -35.5728   28.1046   S
  -45.3469   29.6960  -39.8939   H
   -7.0499   37.4865  -39.9780   O
  -34.1117   31.3530  -32.1260   C
  -19.2954  -39.2587   16.0759   S
   20.4707   -7.7431   23.6745   C
    4.1634    7.1291  -13.2132   H
  -33.0043   17.6404  -11.6453   O
  -30.8487  -36.2706   24.9500   N
  -14.8327   29.6395   -5.9686   N
  -44.4617    1.3003  -40.6425   S
  -10.1489  -12.5921   22.8506   H
  -31.4894   -5.0713   -3.4352   H
  -26.7482   27.5201  -30.9364   N
    6.8088  -21.2486  -20.7223   S
    1.0592   37.3412    8.6220   S
   -0.4646   22.9687   41.5456   H
   -2.1963   10.3285   24.4996   S
  -24.4758  -15.0794   22.5614   C
  -28.5891  -46.5148   36.1194   O
  -22.2846   -2.4282  -30.2030   C
    0.9165  -29.5357   18.7477   O
   -8.7552   27.1068   15.4860   O
   -7.7637    3.4094   14.8736   N
  -49.4708  -23.2842  -48.5199   O
   21.5258  -41.1068   23.6735   C
  -29.0909  -40.4932  -10.6279   H
  -23.3776  -17.8278  -13.6241   C
   24.1652   45.1784   19.7144   C
  -23.9098  -32.1379  -27.9936   N
   18.4297   -8.2490   43.7982   S
    4.6400    6.5907    6.3194   S
   14.7280   33.7340    3.6094   N
   48.5449   -3.8510  -13.8033   O
   11.5642  -15.1588   48.7689   H
   -8.1377  -37.9511  -34.5332   N
   -2.5768   26.1440  -17.4899   N
  -45.8276    9.1443   27.8993   S
   30.1384   33.1015    6.4673   S
    0.8854  -13.9709  -27.1258   C
   17.6527   43.6066   12.4539   S
   10.8550  -38.1655  -40.3169   N
  -13.5769   24.3240  -32.0729   C
   35.1505  -23.9649   46.2780   S
  -47.7280   -6.0708   -9.4534   O
  -44.1915  -49.0858   21.6961   N
   33.9459    3.6067  -45.4723   N
   13.7340  -32.4209   -4.7124   S
   31.4070   48.7181   37.2428   S
  -21.5493  -29.4039  -35.6526   H
  -45.8463   22.1789   -5.1780   N
   13.5907   42.6708   49.4026   N
    1.4617  -36.3610   47.9387   N
    3.6216   43.8769  -18.0250   S
   40.7277  -25.7144   46.8617   S
  -15.4151  -13.3081    8.6657   S
  -35.3682  -24.8608   32.5588   C
   -4.3529    8.4791   35.3302   C
  -26.3252    1.6961   14.2512   C
  -16.7865   10.2548  -35.6125   N
   33.4039   -8.3030  -47.4853   O
   -0.1678  -21.7139   36.8023   N
  -14.0131    9.7347   36.0390   N
  -42.0862  -35.6439   19.7199   C
  -40.2185   24.1707  -44.3502   O
  -25.4712  -28.2164  -33.1817   O
  -46.6095  -10.2562    0.3280   O
   -1.4105   17.8749   13.3057   O
   -6.2900  -27.3749  -49.0831   H
  -27.6922   28.0878   -9.4690   S
  -11.8782    9.8948   29.2855   O
   45.0619  -11.9863   21.6677   S
   13.4044   41.7375   36.8149   H
   48.2951  -15.7822  -18.2533   H
   28.5567   -0.3143    8.5143   N
   -8.4916   13.2929    7.3825   N
  -26.3905    6.4899  -32.5155   S
  -19.2702    1.5709    5.1211   C
    4.5183  -42.7072   11.1503   O
  -22.2548   -8.1716   -2.6067   N
  -46.6092  -23.3905    3.6394   C
  -23.3807   11.6313   30.0884   S
  -38.0224  -11.8683   13.7832   S
  -43.7296   48.5209  -43.8768   N
   35.1524  -17.0502   -6.4515   H
   -0.5131  -34.1018   15.5254   C
   -6.7073  -17.2231   33.3071   O
   23.5296   -6.7335  -23.6840   S
    9.6870  -43.3259    2.6171   N
   45.4950    1.1972  -43.1931   H
  -14.9964   36.1360   -6.8134   O
   -6.3698   -3.7764    7.4691   S
  -43.7623   17.1585  -18.1532   C
   47.4563   46.6065   14.5862   H
  -40.1308   29.7652  -12.7933   H
  -37.1892  -15.1531   40.2526   O
   37.6739   -1.4350    5.7310   S
    8.4776  -22.6355  -15.0706   O
  -29.9397  -47.9414   23.4727   N
M  END
$$$$
