Generated Ligand
Programmatically generated
Comment line
100  0  0  0  0  0            999 V2000
  -34.9249  -38.7875   15.5507   O
   15.7343  -47.5570  -17.7288   S
   -3.9523   31.7882  -48.4369   S
  -42.8306   36.4261  -11.2423   N
   35.0326   -4.2870   11.5774   O
   37.0922   10.1858    3.1709   O
  -12.0860  -23.6878  -15.6820   S
   27.5221  -32.4657  -11.6544   C
   47.1962    9.2257  -24.8966   S
   -0.2203  -23.5397   17.8738   C
   25.7454  -13.9287   42.6356   S
   13.4896  -32.7167   12.1094   N
   39.6777  -30.1687  -35.8184   N
   13.8608  -27.4189   46.8962   N
  -35.3572  -27.4563   32.3394   S
    9.5036   14.1900    7.0282   H
   15.3507  -23.8366   38.5182   H
    9.2686  -18.2971   38.6420   C
   19.4073  -40.9135   31.7285   O
  -17.5622   30.7328   23.1403   S
    6.6705  -13.4586  -35.5617   O
   34.6874   37.9191  -11.8783   N
  -21.6791   12.8721   27.0136   N
  -41.4120   33.6775   18.7562   N
   12.5355   -5.2767   23.9548   O
  -17.2011   27.5116    9.1265   C
  -18.8694   34.3131   45.1668   O
   35.1762   17.7825   33.3193   O
   42.9019   35.7758   27.6984   N
  -44.2797   30.8992  -12.0449   H
    3.7072   27.3984  -35.9073   H
   47.2444   25.9681   29.4324   S
  -34.2110  -36.7407  -10.5073   N
  -48.2677   49.9286   35.4512   O
    8.6498   35.8150   23.3113   O
   17.7644   -5.6459  -26.3998   C
   42.6621  -15.2886  -20.2419   N
    7.5030   49.9432    3.7378   O
    5.3018   45.0945  -19.9549   C
   43.6331  -31.9818   -4.9448   H
  -23.9972  -14.7661  -15.3208   N
  -42.4846  -10.6012  -10.5026   O
   13.3801    0.2237   18.3770   O
   46.4334    4.5153  -45.5126   H
   30.9530   -0.0937   35.5625   O
  -48.1235   21.6912   19.5516   N
  -27.6910    3.8506   37.8753   N
  -26.8299   -1.2504   38.9330   O
  -30.6530   -7.8962   47.8010   N
  -43.0908  -28.0893    6.2309   H
   23.7283   34.4336   44.3174   O
    9.0940   49.4148   27.0219   H
  -22.7856  -24.4712    0.7154   S
   43.1782   48.3563  -21.2091   H
  -44.2263   13.1543  -24.2421   O
   15.8915  -16.2437  -44.6231   C
   -7.1203   12.8552   20.7111   H
   31.5541   30.6203   -5.1823   O
  -35.5345   19.3589   42.0877   S
   15.7067  -20.5322  -36.2719   N
   29.3198   47.0532  -42.9696   O
   45.5768  -25.5305   14.4107   O
   27.5834  -44.9896  -48.4938   H
  -20.4683   18.0683   15.4959   S
  -36.2203   14.3625   29.3359   S
  -13.3918    4.0041  -15.2692   N
   -3.8963  -25.2931  -45.3815   C
   19.0302  -49.9397  -13.6756   O
  -10.1713   -0.3687  -49.4665   S
    9.6929   14.3796  -29.7279   H
  -34.4316   13.9139  -23.3745   H
  -27.7855  -39.9624   -9.2510   N
   19.9419  -16.2994   36.4939   O
  -13.3538  -26.3250    6.6538   H
  -31.5663  -19.7812   16.1627   H
   15.1744   14.7960  -36.2256   S
   34.6498   -5.1463   13.7693   N
   11.9630  -18.3238  -48.8568   S
   42.2397   -9.5525    2.6535   C
   41.7281   30.8242  -44.6808   S
  -38.3169   17.6156  -46.4199   N
  -34.4995   21.1348  -37.1636   N
  -25.5738  -12.5219   14.4308   H
   33.4036   18.0060   41.1432   H
  -18.8991   38.9872   47.6469   O
   18.3737   23.6128  -38.2661   S
   20.5695   23.7167  -48.9394   C
   39.5762  -35.3504   31.8249   S
  -41.2697   13.7072   18.3557   O
   -0.5991   42.1736  -29.3179   O
   34.0506   12.5793   -2.4870   C
  -48.7530   10.6147   11.5881   O
  -11.4241   45.8883  -11.8037   H
   -1.9535  -19.4747    4.5503   N
   11.2008  -25.6743  -49.7209   C
  -25.3459  -22.2293    6.4215   O
  -36.6921   15.1872  -10.5514   H
   10.6911  -29.9968   14.3403   C
    1.3446    4.7591   48.7282   N
  -10.6467  -48.5296  -35.7641   H
M  END
$$$$
