Generated Ligand
Programmatically generated
Comment line
100  0  0  0  0  0            999 V2000
  -19.0499  -44.1497   39.3757   S
   38.0139   40.3856  -36.6741   H
  -30.3109   34.7158  -32.8346   H
  -46.5447   14.5753   10.2147   S
   23.0897  -17.9627  -15.7298   O
   25.8111  -49.1016    1.0521   H
  -45.0248    7.7891   45.0751   N
  -19.4025   16.8446   37.7108   S
  -22.3109   27.8006    8.7316   H
   27.7795   12.6978   39.6064   O
   48.6391    5.4572   35.8019   C
   41.5848   38.1860   26.8688   C
   18.3133   18.7470    4.2111   H
   40.0440   44.7441   16.7935   S
    0.0654   -5.5121  -19.6944   O
  -31.9423  -43.4317   43.3061   H
  -12.3062   32.3455   19.4863   H
  -29.2920   46.8009   31.8913   O
  -26.1737   46.9572  -25.1894   O
  -24.9923   21.0612   -9.0853   S
    1.3108   45.1008    2.0230   O
  -37.5772   23.8398   35.0615   S
  -37.4153   12.9518  -48.3617   N
   18.2347  -30.2727  -27.3046   C
   40.3873  -42.1167  -16.9848   O
  -23.6427   -3.8958   28.0549   C
   32.1965    9.0562  -33.9724   H
   49.1878  -40.9031   10.7589   O
  -44.5997  -20.5288   -5.2439   O
  -10.2602  -11.8091   28.2110   C
  -44.3557    3.3167    3.8205   O
    9.9486   38.3487   -8.7102   C
   33.3834   -9.1203   28.1744   O
   31.0128   -8.5014  -24.1687   C
  -47.7919  -44.2522  -36.3015   N
   13.1526   33.5807    3.9956   S
  -14.3742    9.2155  -29.6653   S
    2.3135    9.1986   24.4056   O
   -7.3217  -48.9040  -19.6685   O
  -41.5858  -29.7562  -21.9599   C
  -13.1866  -46.0170   44.8511   O
   -1.4291  -23.2580   47.5385   H
   11.2412    6.3282    9.0180   C
   33.2213   41.0114    2.0609   C
  -22.2671  -15.8440  -43.5846   S
  -16.4360  -17.7930   47.7260   H
    3.1632  -23.0929   42.0855   O
  -14.8287   -6.0220   34.2193   O
  -36.8400   21.9955  -43.5425   S
   11.7646   -6.3187   15.9494   O
  -46.9573   -7.7332   -6.5784   C
   -0.7669    0.6461  -12.7792   S
   41.7176  -25.4379   26.3299   O
   30.6942   41.5208  -19.0706   S
    2.3307    9.9742   41.6702   N
   39.8727  -44.5418   33.7523   N
  -40.3071   40.8265  -34.5453   O
   48.6451  -12.7015   17.0954   C
  -45.6220   28.0457  -14.8988   S
   18.9030  -48.1334    4.9979   C
   -1.2017  -43.3484   26.8714   N
   38.0123  -43.4234  -14.6912   O
   16.7962   43.2646    7.0160   O
   31.1994  -13.4676  -25.8588   C
  -27.7143   16.0180    4.3392   O
   42.4935   32.4264  -37.1688   S
  -38.5352   16.4405  -44.7812   H
  -48.1733   30.3113  -12.7234   S
  -36.1477  -25.9364  -39.2969   C
   28.0147  -27.0323  -47.2670   C
  -17.8642   36.8830  -24.5861   O
  -30.1815  -49.2732   31.9798   N
   23.0788   34.4395   27.3015   C
   25.9047   26.0790    8.1281   N
   35.2892  -16.3904  -44.8588   H
  -23.8723  -10.6848   12.0883   S
   45.9595   42.7651  -15.5688   H
   -7.9150  -45.3817  -34.4817   N
   17.5388  -37.9025  -31.6376   H
   39.9502  -37.6643   49.6909   O
  -33.6484   49.6300   40.2614   S
  -37.8081  -23.8483    1.7195   O
  -48.5134   25.6201   30.9426   C
    8.4129  -42.2432   35.6238   O
  -49.4436   -7.0735  -39.1897   H
  -23.3469   26.3331  -30.3033   N
  -42.1512  -38.9770   -5.7282   C
  -33.8786   40.6452   18.5335   H
   -7.7205   34.6333  -44.9728   S
   11.1493   28.6534   21.9372   H
  -18.0863  -16.0745  -46.2641   N
    0.5758   32.6509  -31.0921   C
   12.6850   36.4159  -48.5103   O
   33.8568  -30.5846   44.1584   N
  -49.8709    0.5867   15.8733   C
   25.9383  -24.2900   -1.9066   O
  -41.4977  -42.9006  -14.5951   N
   15.6414   43.1884  -40.9516   S
   21.7639  -43.4067   48.0875   N
   41.7633  -24.8093   29.6828   S
M  END
$$$$
