Generated Ligand
Programmatically generated
Comment line
100  0  0  0  0  0            999 V2000
   25.6805   45.5188    2.3407   S
   -2.7023  -21.1748    2.9942   S
   44.7418  -47.4092   48.8821   H
  -10.4748   43.9014   17.5696   H
   33.3645   -7.3095   11.1498   H
   49.8490  -33.1576   45.4651   C
   34.6609   -9.3325    1.1583   C
   40.6337  -33.3612  -12.7291   H
   -3.8150   43.6327  -17.1694   N
   18.2547  -44.3549   -9.5182   C
   40.0771  -47.1595  -17.8230   S
  -27.8162  -44.0507  -34.6377   O
   -2.3658   36.3861   15.3921   C
   37.7012  -44.8276   33.5033   S
   -8.8843  -15.1708  -26.0775   O
   40.2474   11.6494   44.4972   N
  -48.6037   23.5396   10.9794   S
  -42.7517  -37.0878  -24.4172   O
   25.5157   -9.7528   20.4747   C
   23.6635   -5.9667  -37.5687   N
   25.9758   29.7771  -22.6334   C
    8.4828   14.0847   28.5490   H
   30.9357    0.1240  -26.4777   C
   41.5083   46.7157   39.2390   H
   14.7185  -15.2942  -36.4347   H
   -4.6780   -0.2808   21.6858   N
   23.6888  -28.7624   15.3406   S
   -6.1781    8.9364   19.0062   O
    2.2844   13.6673   46.2530   N
  -46.8535   16.5493  -32.8797   C
   39.5013  -31.4047   -1.8987   H
  -48.8993  -49.9688    9.0325   N
   33.1044   -5.5771  -48.0464   H
  -44.9232  -32.5899  -22.6683   S
   -1.5382  -28.4660  -10.1201   S
   41.1686   15.8373  -24.3110   N
  -15.8095    6.0204  -47.1383   O
  -28.2754   33.4917  -18.8574   N
  -37.0669   15.4910   14.7810   N
   27.4026  -43.4314  -48.1300   N
   14.7424   -0.4619   49.5779   H
  -12.8211  -20.1264   -8.7338   N
    6.9862   17.6646  -25.4703   C
  -19.7863   10.8683   42.6054   O
   24.1926    9.4532  -46.1595   O
   35.4626  -35.4700   24.4015   S
   16.9004   30.6549   35.4213   N
  -37.9455   10.4416  -23.0650   H
    2.3083   -0.1800   18.5321   O
   -8.8989   47.3813    1.7551   O
   30.5350   30.9393   10.5038   O
  -49.7019  -23.7552   18.0151   O
   45.1518  -36.0768   17.5395   O
   22.3076  -14.2864   -8.5814   O
  -34.5446   -8.5104  -45.4626   N
  -35.9768   46.8205    3.1287   H
  -24.6618  -45.2078  -45.2083   C
    2.4618   18.4920   42.9087   C
   44.7576  -21.5777  -29.0379   H
   31.8832  -48.2771  -20.0187   O
   35.5836  -27.2593  -42.3608   S
  -46.9199   11.1033  -33.4256   N
   17.9558   47.9375  -44.2532   N
   35.4361  -27.2874   27.5157   N
   25.7149   40.5330  -37.2177   O
   22.4144  -20.4426    5.1342   O
   23.7088   23.7824  -49.0382   N
   18.2836  -11.6840  -48.5351   S
   -2.3355  -20.1856    1.9651   H
   26.2956  -27.6238   -9.4521   H
   -6.1120    1.0174   29.4917   O
  -22.3810   36.8326   18.2848   O
   24.1628   36.5072   34.6589   S
   -6.3636  -27.2452  -39.3080   S
   49.9492   -6.2782   40.8292   O
   46.6526   46.6348   45.2619   O
  -24.1416  -18.9712   -5.2399   C
  -29.9895  -41.1559   42.3998   N
    6.7309   -8.7752   -1.1898   H
   15.9782   21.3353  -12.4245   C
  -22.7777    4.0670   34.1644   N
  -33.1039   -1.8815   -4.1277   S
   40.8794   40.9488  -36.2304   C
   -1.8629   12.0432   10.1025   S
  -44.4623   22.2120  -13.2870   N
   20.0305    5.8797   26.7446   O
   -2.1758  -36.9950   -3.1149   C
   23.6521   -7.8165   -1.0643   C
   23.6002   17.3427    7.0692   N
  -31.6758   46.4593   36.5557   H
   34.4243    0.0723   38.5758   C
   10.8083  -28.0447    2.0672   H
  -32.2900   20.3417  -35.8125   H
  -23.2309  -16.8383   49.3667   S
   -6.3454  -10.4887   -2.3423   N
  -14.7220   34.7097   13.6221   N
  -22.2826   38.7052   19.1332   S
   27.2251  -22.5189  -45.1043   N
  -17.0809   -7.7668   39.1598   N
   23.1735  -19.2131  -47.0869   C
M  END
$$$$
