Generated Ligand
Programmatically generated
Comment line
100  0  0  0  0  0            999 V2000
   13.8506   11.1778   14.7154   C
   37.8850  -19.3300   48.1678   O
  -42.5865  -15.3375    9.0694   S
   -7.8825   45.2626    3.7798   C
   14.5247    3.9566   27.4883   N
    2.2340  -33.4264  -28.6194   H
   11.7547   47.2212   23.7558   N
   37.5300  -36.8827  -14.9772   H
   -6.6978   -8.0529   29.6584   H
   10.1954    5.0085   -0.9038   S
  -46.7164  -11.4234   20.3765   O
   41.7222  -15.7173   41.5346   O
  -26.1697    0.3490  -32.4445   H
  -11.3693   44.7681  -37.5519   H
   35.7349   44.0284   -9.4396   H
  -30.7382  -23.9192   14.9284   N
  -32.1319   47.4082  -18.8391   S
   37.1313   16.1987  -15.2212   S
   -6.3152   48.2033   15.6564   O
  -49.9522  -35.5228   37.9304   N
   40.6749  -48.8923  -33.0858   S
  -12.7447   13.4220   -9.4809   C
  -28.5994   11.3669  -27.6928   C
  -12.3447   -9.4037   45.6551   N
   35.6422  -38.3352   28.0918   N
   -8.4225   12.3894  -32.3924   S
   46.9888   32.2964  -37.2851   N
  -21.5868   26.5178  -23.6075   S
   21.8350   19.2820   -8.0522   N
  -43.3075  -12.1080  -49.9302   O
  -27.5586   23.1083  -30.6711   H
  -41.8513  -37.0524   30.1681   O
  -30.8940   38.9650   45.8030   N
   -9.3517   32.2217   33.0104   O
   34.9743   -6.6628    8.0417   H
   -0.9905  -15.0509  -40.3446   S
  -22.6294    9.8659   -9.9862   O
   14.0288   32.1451    3.3034   O
   28.8988   43.7840   41.2402   C
  -37.8846   -0.4408  -40.1495   S
  -48.8589    8.0282    3.9714   N
  -38.7468   18.2621   -9.3443   S
   24.8984  -12.8840  -31.8169   H
   46.1221  -18.5552   -6.4517   C
  -41.6350  -10.8523   17.4195   H
  -14.2401   17.0236  -26.1284   S
   49.7070  -25.9842   28.1895   C
   15.1939  -16.5841  -27.9299   H
  -45.5909   28.0756  -13.9845   N
   44.5423   21.8181   19.4156   O
   -5.3979   21.5938  -19.1613   N
  -21.4278   -5.0496   -7.8914   H
    3.2085  -20.9688   42.1443   S
  -25.6208   48.3490   39.2578   C
   12.4870   -7.6695    6.0466   N
   35.9775  -14.2610   28.8485   O
   45.8824   16.3791  -12.7414   H
   46.8750   23.3112  -38.2411   O
  -31.8200   15.5592  -41.3465   N
    4.1260    9.5108    4.3667   C
   18.9223   42.5069  -13.9575   N
  -47.3806   26.2819  -41.1074   N
  -38.0658  -22.7759   35.2406   C
   26.2388    9.7308  -29.6862   N
   45.0425   -4.6849   20.5195   S
   46.6172   34.2928    9.4998   C
    4.3979   48.6504  -41.9419   C
   -9.4764  -49.4856   11.7242   S
   41.6706  -26.6693  -32.0105   O
  -47.7965   13.2345    2.6292   O
   32.8904  -15.1864  -19.9082   C
  -49.6301  -26.4825    9.7737   O
   -5.8828   29.2460  -22.3400   O
  -19.6002  -47.9207   -7.4051   H
  -13.4037  -13.6493  -11.0408   O
   -6.0949    3.8222  -43.0956   N
   11.5192   -2.1275   29.6455   O
  -48.7751  -34.4817   18.8611   H
   45.8252   46.9462  -29.0578   H
  -39.7451   -2.3640   22.4481   S
    6.6413   41.6072   35.8110   C
   -7.8112  -31.9794   20.0845   S
   25.3413   22.5248  -48.3407   N
  -46.5209   37.6606  -38.3377   N
    0.8435  -33.2030   -6.1078   O
   47.2613   29.4100  -32.0430   O
   35.7732   32.5681  -16.5228   C
  -46.6304   -0.8600  -25.4218   O
   -4.4333   29.2318  -11.2598   C
  -25.4240  -30.2375  -12.3973   O
   28.9188   13.2047   12.6969   H
    9.3552   17.7950  -12.5579   N
  -42.3165   18.7921  -16.1129   C
   12.4789   23.3357   18.9574   C
   17.8111   -0.9414   33.1106   H
  -35.8520  -14.8205   46.6775   S
    1.3426   47.7422   -0.2421   H
   43.2444   30.6421    2.0088   N
   41.3099   -8.3458  -26.3653   C
   -1.5949   -7.4600   13.6167   S
M  END
$$$$
