Generated Ligand
Programmatically generated
Comment line
100  0  0  0  0  0            999 V2000
  -40.4754    9.3834   17.7630   H
   26.8549   23.8353   34.8748   C
   13.3153   28.7282   28.8890   N
   38.8751   45.1925   11.4950   S
  -43.5627   45.4163  -41.0290   O
   38.4702  -38.7450  -16.3408   N
    5.3019    9.9369   -1.4787   H
  -29.7465   16.1766  -36.0487   C
  -18.7786   -8.6429  -46.7910   C
   43.8994  -29.7069   19.7033   H
  -13.9751    2.3970    8.6034   H
  -48.4477  -34.4414  -23.0624   H
   28.1034    8.0666   -7.0160   S
  -20.4083  -38.6122  -37.3402   O
  -37.7611  -16.4751  -47.3271   S
  -33.2057  -39.7796   44.5430   S
  -47.0462  -43.4445   48.4750   O
   48.6588  -10.4202  -48.1687   S
  -30.5960   35.6497   18.1891   O
  -10.2506  -17.0698  -48.8476   N
  -19.0491  -31.3689    6.5765   O
  -12.8045   33.2331  -27.5933   O
   36.5413  -45.8110  -47.3769   H
  -21.1482   22.0905   22.5513   N
   16.3037   26.4036  -30.6475   H
   31.9619  -21.8658  -18.8159   N
  -25.3761   22.6502  -17.2705   H
  -11.5942   10.8135  -47.3351   H
   44.8994   29.2013   39.9738   S
  -18.0773  -18.9699  -36.7457   H
  -14.2684   28.0451  -46.1190   N
    6.3858   39.5994   47.8785   O
  -45.2332   16.2490   -9.5718   O
   49.5377  -18.6828  -26.1389   O
  -44.4786   47.5011  -25.1098   C
  -42.0692  -39.9050    2.9629   N
  -46.0598  -11.1730    9.8628   S
  -27.2970  -24.1897   31.0766   C
    6.0639  -16.8154  -42.2188   O
   15.4215  -40.8416  -20.2723   N
    8.4594    8.2134    9.7177   N
   25.6802    6.3082  -30.0717   H
   36.6535   36.9784   24.4662   H
   25.5114   12.3538  -23.3774   N
   -3.2126  -19.0877  -36.6280   S
  -38.2273    5.3169  -10.2842   H
  -24.0250   46.7080  -44.7585   S
   12.7920    1.5298  -29.8604   O
  -28.8485   42.6352   45.9826   C
   42.7092   33.6407   38.2889   H
   40.5544   -0.2931   12.4475   S
   24.7496    4.9884  -21.8152   H
   36.7058  -20.8000   22.5702   O
  -39.8431   44.6838  -21.5984   S
   -6.1214   12.2211  -24.5984   O
  -46.1869  -43.8432  -46.6487   C
   34.8436   47.0550   48.7145   N
  -34.6468    9.8462   25.4738   N
  -47.2316  -31.7788    5.2160   N
    5.1177   -9.8444   32.1143   N
    1.4198    4.3141  -35.9058   C
  -30.2937  -17.3997   22.7167   C
   17.1950   21.1321   23.8256   N
  -47.5081  -17.5133   -9.0199   O
  -27.8279   -1.4681   16.7435   O
  -43.8894   12.3194   -6.8519   C
    2.6115   28.7423   -1.0377   C
   35.2723   -3.0184   13.1937   S
   35.0650   36.3670  -35.0495   C
  -45.1058   49.1996   -1.5804   S
   18.2734   37.8528    2.3679   S
   19.4577    0.3040   49.4433   O
   11.8403  -22.4046   11.1493   O
  -21.7650   11.5485   38.2223   N
  -48.8688   19.4861  -15.3933   H
  -37.5724   26.5386  -40.7741   C
    7.5455    0.8339   36.6888   N
   46.3025    8.8689   32.2570   O
   -2.8636  -47.8334    7.7642   C
  -30.8103  -41.2803  -17.1558   S
  -28.6374    6.9560  -35.1897   H
   19.0120  -46.7083  -36.8831   C
   -9.4265  -48.0562   41.9737   O
   12.6205   17.8096   41.4158   O
  -13.1367  -30.0837   -1.6109   S
   -8.0552   48.2575    9.1265   S
    6.1443  -25.7579   45.1098   H
  -10.8870   37.7072  -29.0034   H
  -28.1709   19.4225   23.5050   N
  -24.7182  -16.9406    2.3896   O
  -39.6114  -12.5178   36.5377   O
  -26.2968    2.7608    0.2435   H
   35.1414   18.8280   33.0581   N
   -7.1709   19.2515  -32.0450   C
  -19.5222  -10.5630  -10.0144   C
    2.5183  -29.7167   48.9148   H
  -20.2426   41.4831   48.7707   H
  -40.5983   18.0760  -31.9929   N
  -26.1280   30.9166   12.8721   H
   34.5843   46.7124    8.4350   S
M  END
$$$$
