Generated Ligand
Programmatically generated
Comment line
100  0  0  0  0  0            999 V2000
    1.9497   -7.3486  -22.7689   N
  -11.5142  -20.4302   25.5784   N
   42.8914   49.4318  -43.3058   H
   30.5269   31.0309   27.9224   N
   -9.2394   20.6053    0.0207   N
   47.3250    0.6221   -9.8510   N
    1.0710    9.5690   45.9490   S
  -19.7944    2.1719   45.0223   O
   30.0765  -31.0884    7.0263   S
  -36.2944  -41.4834  -14.3435   S
   -2.6201   38.1792  -36.0486   S
  -17.7119   34.6053   -2.6353   C
   46.5195   -9.1945   -6.4928   N
   43.9711  -29.6154   30.0559   C
  -47.7788  -29.5777  -12.4480   S
   22.7339  -38.5125  -44.5165   N
   16.0884   37.0239   16.6529   C
   10.5295   33.6966  -28.5811   O
  -46.7875   35.6737  -46.6876   N
  -37.2385   15.3303  -36.9962   S
  -19.6813   42.0777   18.8229   S
   23.8529  -28.1512   -8.2805   H
  -30.1018  -29.6197  -43.4161   O
   14.5606  -29.6243  -28.0847   N
   43.2761  -19.5438  -10.1050   H
   15.8936   31.8719  -26.3951   O
  -34.6886   13.3960  -32.3571   O
  -13.2855  -31.4075  -49.9351   H
   39.5768    0.0293  -45.0998   H
   38.8827   46.1802  -12.1695   N
   39.3722  -20.8032   33.6606   H
  -14.6165   22.3627   10.4369   H
  -20.5760  -33.4240   -1.3088   C
   34.5360  -31.9373   19.7178   S
   33.3873  -42.9890   -1.5680   C
   48.9183   37.1457   10.6121   S
    0.8113  -43.8336   49.0933   S
   42.0688   18.4138   36.0631   S
   13.5408  -10.3583  -14.6543   O
    0.0733  -36.7087   14.2457   O
   32.6161   38.6340   40.2424   N
   47.3318  -30.2405   -2.4010   H
   17.0679   14.7161  -31.0922   H
   15.6023   23.4203  -40.5010   C
  -44.5409  -20.2214   22.0480   S
   16.0129  -43.2817   -7.6600   O
  -32.9665   27.6928   48.5783   O
    5.9477  -41.9597   25.2527   O
  -23.7620   -1.3396   25.9732   O
   -4.6482   -1.9108  -33.4050   H
  -35.1800   26.9109  -32.3977   O
  -16.7837  -17.9710   38.7058   S
   -0.5872   31.9069  -25.1541   S
   20.2771    8.6792   -9.8865   C
   -2.0302   16.7578  -42.7744   O
  -28.4283   20.4332  -42.7013   H
   38.3321   37.8360   23.9542   O
   -4.4641   25.0207   22.5068   H
  -10.9672  -46.6245   22.9594   C
  -10.1878   27.6849   26.0930   N
  -43.4492  -49.6285   39.3648   O
   12.7454   44.3911   42.1198   H
  -17.3872   35.8356    6.1313   C
   43.8500    9.8443   12.9030   S
   43.8754  -43.2104   43.3824   C
    6.5841  -49.2327  -40.4420   S
  -39.2627   43.4583   -5.8211   C
   -2.0647   37.7776   -9.2284   N
   -3.7885  -27.4112   18.8582   O
   26.3694  -17.4556  -13.2923   S
    9.7311  -45.0416   16.7745   N
  -11.4303  -33.4314  -30.6326   C
  -25.7036  -45.1967   44.3931   O
   28.2088  -30.3165   36.5271   O
   45.4929   18.7218  -44.4721   H
  -29.4577  -25.7951  -23.0627   O
  -35.7584   49.8744   23.5827   O
   13.0065  -46.0603   31.6953   H
   -8.8685  -15.2276   17.1283   N
  -19.4518    2.1699  -13.2117   S
  -15.6855   14.4109  -38.6325   N
  -26.9831  -35.9023   32.0304   O
   -2.1066   41.0633  -32.9911   N
  -45.1962   20.8666   25.1570   S
   20.0948    7.6561   43.8979   O
  -40.1939  -20.9803  -15.5066   O
   23.6063   14.1064   31.3800   H
  -47.9728   -6.2773   31.3612   O
  -23.5101  -23.8646   18.6539   H
    4.2043   40.3359   16.4065   O
  -41.0517    6.4001   34.0811   N
   24.4248  -40.5213    8.8863   C
   -3.7666  -24.0555  -39.6236   S
   37.7686   -2.6121  -34.6039   N
   17.6868   36.9660  -22.8552   C
  -27.1540   43.0924   22.7346   N
   23.5798    1.5245   34.1336   N
   32.9851   -4.0216   -0.8697   O
   16.6028  -43.3531   25.5283   O
  -34.2046   47.6898   42.8556   N
M  END
$$$$
