Generated Ligand
Programmatically generated
Comment line
100  0  0  0  0  0            999 V2000
   -8.3871   -9.4962    6.3953   N
  -44.2410  -37.3023  -48.1444   O
  -34.2578  -49.1671   10.0345   O
  -26.4383   22.0229   28.2969   S
   37.4653   -9.7442   37.8431   H
   24.9957   41.0072    1.0650   C
   41.5853  -19.8396  -46.6323   H
  -18.2404   29.6605  -21.2141   N
  -41.0114   11.9805  -47.3609   C
   48.1452   40.8559   35.2817   S
  -24.1622    9.5741    2.2900   S
   49.2187   46.0430   22.6636   O
   22.8496   12.5247  -20.4136   N
   39.5885  -45.9632   -7.2447   O
  -26.2815   13.7578   43.6663   H
   23.6766  -15.1686  -14.8177   N
   12.9088   14.2258  -27.2163   S
   21.6746  -24.2863   19.1352   S
   11.0482   45.6207  -28.3694   C
   22.1126   19.5647   26.0005   O
  -24.4679   41.4034  -48.2247   S
    8.6200   13.0201   42.4633   C
  -45.8407  -42.8270   -9.4032   N
    5.3833   -8.8074   -9.6184   O
  -11.2319   46.1303  -20.6917   O
   35.5186   13.5487   33.2949   N
   25.5356   44.8158  -40.9847   C
    8.6821   -6.7725   12.0194   H
   43.7543  -32.1904  -44.0158   H
   -0.6311   -6.0482  -18.5515   C
   -7.4748  -40.6160   37.4973   O
  -35.8030  -45.4828   12.2214   C
   35.2537  -46.9549  -43.5285   O
   49.9039  -49.6393   -2.9664   O
   27.6916    8.7732   32.3104   H
    1.7328   47.8925   -4.2191   O
  -15.9508   35.3681   41.8251   H
  -12.3586  -36.9163   45.4687   S
  -24.4396   10.1471   -9.4236   C
  -39.3902  -15.9408  -22.9923   N
  -20.4931  -41.3092   13.9624   S
   10.3840   -7.5361    0.9852   H
  -39.8972   30.6167    1.7067   C
  -19.9579  -39.6023  -15.1525   H
  -34.6878   25.7253  -46.4310   C
   24.9190   18.7809  -37.9390   S
  -33.3471  -25.9024  -13.9921   N
    5.7738   -0.3994    7.3722   H
  -10.4831    2.4735  -16.8316   C
   16.2769   41.0028   14.3816   O
  -33.2604   28.2721  -47.7320   C
  -46.4966   17.1661  -46.6768   S
   26.4293   37.9096   -0.5223   S
   41.5115  -15.0739  -25.3987   N
   31.3970  -12.7178  -12.7288   O
    2.6419  -25.0456   28.1125   C
   22.8411  -31.9124   18.0324   C
  -24.4477   35.4470   14.3766   C
   11.5916   35.7477   -5.1966   C
  -39.7446  -39.2004   33.3870   H
  -43.7306   48.4123   29.0665   O
  -25.7437   49.2532   33.4513   C
    9.2008   37.6594  -20.2186   H
  -17.8203    5.3143   16.3688   C
  -40.9556    6.3682  -46.2354   H
  -34.2976  -42.4234   29.0909   O
   33.0483  -27.8269  -31.9015   N
   16.9585  -11.3347  -45.4701   O
  -45.4326  -33.1669  -39.9167   N
   31.9755   -1.5480   44.0073   O
    1.0419  -13.4614  -43.4942   H
  -12.5785  -27.4437   48.1388   O
    9.7721   11.0604   -0.0322   H
   13.7003   -7.1206   24.5593   N
   25.2162   25.9223    7.9555   O
  -33.6043   31.8699   28.1693   O
    2.3782  -20.5954   32.2993   H
  -17.7348  -33.9351  -49.7261   O
   17.6922   -8.9782   15.4514   S
    0.6394  -20.3654  -11.4877   C
    0.7039  -27.6997   10.4686   C
   -5.6710   44.5169  -15.0034   S
  -33.8531  -41.5362   -3.4941   C
   26.8073  -42.4204    3.7728   O
   33.7686   -4.8701    7.9905   C
  -20.8385  -24.8862  -27.8862   N
   18.5170   45.8798   47.6210   H
   20.8936   41.1665   -3.2773   H
   11.9507  -43.2393  -17.8591   H
   25.3310   -6.7178   43.7352   H
  -29.7323  -24.5007   23.1217   N
  -48.3592  -14.3197   29.1971   S
  -22.2664  -18.5467   24.8991   C
   24.5845  -11.0896   49.1115   O
    1.1785  -22.2698   -8.6317   C
  -19.5662   47.0527   25.3855   N
   29.8996   30.8207  -21.7078   O
   17.8796  -20.6001    9.8526   S
  -23.1963    4.2010  -26.7086   O
    9.6694  -33.8230   38.7156   O
M  END
$$$$
