Generated Ligand
Programmatically generated
Comment line
100  0  0  0  0  0            999 V2000
   45.5577   28.3808  -11.5548   H
    5.4633  -22.8402   -7.5848   H
   47.5269  -26.0755  -18.1728   S
  -22.8977  -23.4270   -5.0001   C
   29.6555   -3.7528  -48.8968   O
  -21.6100  -16.0278  -44.9536   H
   19.9969   15.6898    7.9426   N
  -12.8442  -13.4346  -32.1642   H
   34.2515  -19.0150   -2.5746   N
  -48.5224  -30.4290  -14.1166   O
   33.2675    2.2118    8.6917   O
   22.3767   37.1227    1.4695   C
    2.4255   49.2956  -20.0087   C
   10.2615  -41.3741  -32.5149   O
  -20.7810  -26.4281   47.5209   N
   41.1446   25.9204   47.3759   C
  -13.7854  -10.7342  -25.6449   H
   -1.4590   33.6338    2.7356   N
  -46.4671  -20.6094   44.1800   S
   34.8100   19.9429  -16.7891   S
  -10.9691   -4.2625   42.4354   O
  -25.2494   -9.6286  -48.5794   N
   -1.9568   -2.8321  -31.8057   H
  -23.3293   25.3831   42.2538   O
   21.4024   32.0933  -25.0008   H
    7.0144   21.1784  -25.4865   C
   -5.5611   -0.7474   30.8356   N
   41.1674  -27.8075   41.1667   S
    7.0522  -14.0493    1.3387   N
  -37.5309   40.9198   20.8789   S
  -26.9037   38.6767  -11.5568   C
  -15.1332  -47.4781  -41.2329   O
    9.3729  -31.7904   36.0297   H
  -44.7023  -21.9905  -47.7128   C
   47.9414   42.4365   39.7949   N
  -45.4963  -31.1430   12.3631   S
    5.9667   11.8049  -19.8112   O
    6.7043   23.5101   36.8934   H
   14.1234    9.2653   12.1258   O
  -14.7408  -47.8019  -28.8466   O
  -18.7787  -12.2877   -9.8377   S
  -13.5476   -9.3834   -7.6480   O
   -1.8182   -3.2853   25.2600   C
   -3.6154  -26.0581   38.9412   O
   28.1215   38.2215   14.3680   O
   12.4882   28.5720  -12.9030   C
  -15.3821   -8.9769   37.2232   N
   24.3415   26.2870   16.3232   S
   44.3083   12.0344    3.5299   N
   29.2349  -43.9741  -12.4950   C
   16.8542  -29.4423  -48.7116   H
   14.7234    9.5289   29.5230   C
   -8.5416    0.5184   49.5700   C
   30.0393  -38.4185   24.1564   H
   35.9372  -31.7481  -48.5086   S
    2.1079   32.9746   35.4384   S
   27.5940   43.0507   27.3685   C
   11.6576    8.4898    4.7788   H
  -41.3088   12.5622    5.6700   N
  -39.7878   41.3342   12.1970   O
  -34.4178  -43.1914  -26.3763   C
   14.5095   -1.9000  -25.8318   H
  -47.7710   49.0230   13.7913   C
   24.0963   33.0111  -47.7862   H
   -3.8003  -38.6108  -20.9663   C
    6.3640   14.4257  -23.5811   N
   -4.5068   -3.4870   -5.0540   H
   14.6123  -32.6960  -36.9319   C
  -41.3811   40.0241  -27.3293   O
  -32.6611   25.1198  -21.0146   N
    2.4936  -38.2731   26.8399   H
  -20.7937   42.6919  -30.2062   S
  -29.7738    1.6843   29.8244   C
   20.9891  -33.8780   47.2522   S
   20.4800    9.1753   41.2555   O
  -40.9124   -5.4332   31.0343   S
  -17.1291   40.5859  -24.5171   O
  -19.8398  -38.9663   30.4085   O
    0.2799  -48.8360  -13.3794   N
   17.3221  -16.2718  -37.1624   O
   41.3791   11.5710   28.7723   O
  -13.1183  -24.3927  -28.0241   S
  -49.4823   26.4829  -25.9303   H
  -45.0708    2.8557   30.3206   H
   38.9479  -13.8650  -25.5202   S
   46.8113  -26.1154  -46.6535   N
  -41.7725   43.5141   38.3936   H
    9.4823  -44.8096    2.8663   H
    3.1821  -39.9074   38.8288   O
   34.8581  -32.0828   25.2568   H
   42.4414  -31.9132   38.3614   H
  -20.5428   21.9988   14.8066   S
   -0.3344  -13.7904  -36.7648   C
  -43.3535  -11.8345  -43.2115   N
  -18.8154   19.9607  -31.8073   S
   -3.4113  -36.5706   41.5993   N
   -2.3280   10.5091   -2.9925   H
   -6.3637   12.2052  -20.9336   S
  -45.5147   35.3854   43.8276   C
  -45.3173  -30.9453  -41.4256   C
M  END
$$$$
