Generated Ligand
Programmatically generated
Comment line
100  0  0  0  0  0            999 V2000
   39.5441  -44.3283   -2.4235   O
  -46.4853    5.0994   12.2489   C
  -39.9651   -1.5812   30.7273   H
  -46.6131   44.7750   33.1134   S
   24.9267   48.1783   34.3483   S
  -23.8455  -18.1517    5.6847   S
   -1.4973   -8.3759   33.7598   O
  -49.7218   20.0316   40.7280   O
   33.2376  -45.2213  -27.9338   C
  -44.2550   19.0355   10.0274   H
   43.4040   13.4875    2.5504   H
   18.7600  -31.9719  -26.3327   S
  -10.0854   35.7235  -12.2190   S
   28.8844  -19.5071   12.1601   S
  -46.1207   12.6945   25.8315   S
  -15.0479   39.3015   42.6370   N
   32.4752  -10.7218    2.7689   C
  -18.7743   32.7510   25.7241   S
   -5.2654   47.4851   15.6004   S
  -16.8223   -9.7522  -21.5682   H
    7.6723   19.8456   28.0010   H
   30.8902   10.2641    1.2552   O
  -34.0485   16.3783    2.7716   C
   -4.2951   33.5849  -25.0055   O
  -34.4942   -5.1140   -3.4641   C
  -10.1050  -43.4395   16.4449   N
  -33.7918  -43.5531    4.9167   N
  -19.9749  -46.6783   20.7998   S
  -30.3865   -2.3732  -15.3001   N
   19.2139   32.8894   35.6498   N
   31.2307   39.4311   18.4568   N
  -40.6682   22.7847    4.6887   S
   26.4830   -5.0484   11.7166   O
  -14.9469   40.2470  -10.6502   S
   -7.8280  -45.8924  -49.1813   S
    7.4659   39.6469   49.4075   H
   11.0676   37.4535   15.3506   H
  -43.9469  -35.8605   25.5065   O
  -12.1821   39.8996  -37.3585   C
   13.7494   40.8792   49.7073   S
   39.2801  -41.6123  -25.0828   C
   -4.3325  -37.8448    4.4363   O
  -30.7332  -16.9876   -4.3524   S
   37.2817  -33.8217   10.9231   H
   -2.0231    0.1181  -42.0135   H
   -9.6514   13.8524    3.2592   O
  -12.3130   12.3384   31.0052   O
   47.8804  -42.0192    7.5570   H
  -37.2032   27.4880  -12.5906   O
   49.9945   48.7689   31.7121   S
   27.2857   14.3279   26.4243   C
  -29.4301  -48.8144  -19.6010   H
  -44.5564  -35.0602  -11.0395   C
   29.4358  -13.9755   -7.9816   O
   32.9887   35.9784  -46.7699   O
   12.3992  -20.3256  -29.0123   S
   13.9910   37.1549   22.4805   H
  -22.7021   27.0864   23.9973   H
   -2.3081  -27.6045    7.4853   O
   -3.5549  -45.4873  -25.0142   O
   28.8564  -36.0780   14.1550   N
   40.3881  -47.7594   10.0126   S
  -34.6979   33.8329   44.9473   S
  -34.1778   46.8025   28.8545   O
   19.3105  -15.7333    7.9361   C
  -26.7635   -4.0747  -23.5750   H
   33.8558   39.5922   35.7196   H
  -15.9950   46.3795    6.2313   C
   41.9907  -41.1497    1.8515   C
  -42.3066    8.9866   47.1376   H
  -47.5770  -13.4037    2.9995   C
   46.0995  -24.0957   16.2247   O
  -28.1094   11.1106   26.9583   S
   10.8084  -44.9842   48.6171   S
  -14.4439   30.3025   -0.3963   C
  -39.9163   42.8351  -49.4213   C
  -45.0782   29.4023   35.8091   C
   10.4191    5.0796   -0.3149   H
   12.4676   29.0663  -48.2775   H
   38.3374   21.4034  -17.8785   H
   14.9030  -39.2355  -14.4727   N
  -29.6488  -17.0571   -1.8962   S
   18.1639    2.9222   25.1948   N
    3.5899   47.2644    8.7112   O
  -36.1599   41.6681   17.2274   C
   48.1893   14.0646   12.3304   O
   28.3228  -15.1134    7.5841   N
   -2.0901  -37.1382  -40.8538   S
  -45.5235  -22.3147   45.4663   C
    8.6305  -17.1439   36.0143   O
   25.5027   19.5309  -14.8173   S
   25.0560  -29.3204   35.7487   H
  -36.9890   49.0849   -0.8608   S
  -29.5935   -5.2229   34.6698   H
  -11.9836  -26.7675   17.3134   S
    4.4408   33.3299  -33.0263   N
  -40.1208  -42.6013  -12.9130   S
  -28.5550   26.3959    5.5239   H
  -24.2066  -13.4137   -2.9977   S
  -10.2263  -43.4547   29.3444   O
M  END
$$$$
