Generated Ligand
Programmatically generated
Comment line
100  0  0  0  0  0            999 V2000
  -10.5729    6.8246  -39.5013   N
    5.7612  -39.1709  -34.5187   N
  -18.3898   42.5674   11.4390   O
  -42.7348   34.0744  -32.0505   N
   -9.2195  -42.0699   -4.5499   N
   43.8102  -36.3136   23.6438   H
  -38.5816   -0.9034  -32.9248   N
  -44.7556  -40.5876   -5.0193   C
   15.9664   -8.5770   46.4994   H
    6.9454    0.6506  -41.2668   C
   17.8731   34.0001    4.2186   S
   30.9467    7.0140   31.5364   C
   -1.1039    4.7976  -20.8119   O
   27.6739    7.0252  -49.2632   O
    3.2393  -32.2383  -28.4363   O
  -21.3143   29.8473  -41.3380   S
  -23.0377   30.4866   38.9706   H
    5.5124  -46.6580   43.1467   C
   18.5980   27.7429    5.8451   C
    7.3695  -17.2712   20.6233   O
  -49.4134   10.6811  -34.2550   O
   -4.1779   24.5998   38.2611   S
   48.4303  -12.8568   -8.7633   S
  -25.0467  -22.5762   -5.9807   S
    2.8935   21.8392   49.4222   H
  -16.4853   15.3780   25.8434   O
  -30.2781  -21.5129   47.0651   H
  -17.5545   42.4091   15.6041   N
    3.7488   32.2628  -31.5673   H
   10.0440   48.9807  -18.2157   H
   48.1107   25.5649   -7.4516   S
  -43.7609   46.5908  -12.9056   N
   22.5792  -16.3082  -39.3257   N
   12.8481  -30.0906   11.2982   C
    8.8152  -14.9677   35.8295   S
  -12.6953    5.9711  -47.5232   H
   45.5561   44.7858   26.3268   N
   20.0283  -23.2908   -8.7180   O
   11.0865  -30.2294   -4.9579   H
   -3.6577   42.1364  -44.9212   H
   42.6513   19.4942   34.4326   O
   14.7986  -13.5304   18.6973   O
   -4.8405  -14.3646  -49.3551   O
  -16.4296   -2.2091  -24.5087   H
   28.0871    5.4360  -21.5829   N
   -9.3347  -46.7542  -45.3929   N
  -30.8114  -31.3397  -22.8527   O
   25.0907  -45.9917    3.5396   O
   11.9838   21.3054   -5.6968   N
    2.2896   30.4065   45.7641   O
  -43.4785  -11.2338  -36.5118   C
  -18.9036   36.3121  -25.1991   H
   19.4664   18.3238  -28.6021   H
   23.0515   -7.0253   29.7094   C
   36.8164  -36.9765  -43.5837   O
   13.2486   -3.2912   -1.3972   N
   27.6215   38.1866  -27.7746   C
  -20.6225  -16.8042  -29.0157   S
    6.4381   27.4394  -49.3219   N
   29.8644  -47.3830   43.5264   S
    5.7382   15.6891    2.0728   O
  -31.6084   49.6871  -41.6284   C
  -36.9021   -6.7924   37.0677   N
   29.6749  -14.3681  -31.1316   C
  -18.1906   -1.5701  -37.8536   S
   40.8120  -32.0446  -43.2518   C
  -24.9301  -22.6161   28.4179   O
    5.0681  -48.7281  -35.4590   N
  -35.8019  -31.4523    6.5984   O
  -23.1971   43.2664   14.7580   S
   49.9375   18.2728    2.9422   S
   21.4533  -35.7665  -16.1091   C
   32.7498    9.9047   20.6107   C
   29.3915  -49.7169  -25.5957   O
  -12.5412   22.1642   -2.4608   O
   30.5378    7.1846  -14.7825   O
   -5.8648    5.2387   45.0762   O
  -34.2417  -29.8521   46.1092   O
  -11.3075   35.1533   14.9295   N
   10.7943   35.5332    1.3308   O
   16.4155   20.3021   26.5698   H
   36.3042   35.3493   -5.2857   O
  -44.3980  -23.5167  -18.7597   C
  -37.6723   24.0771  -39.9095   N
  -11.6019   26.0228  -37.8117   N
   11.4995   34.8869  -49.5572   S
   38.4957  -43.5686   20.1848   C
  -34.4932   48.5096   41.6439   O
  -47.4129   41.2272   11.9146   S
  -39.1583    0.0420  -42.4616   N
  -47.2920   33.5321  -14.1981   H
   19.0415   39.4327   -5.5961   S
  -16.9725  -30.9922   -8.8750   C
  -13.9794  -41.0189    3.9634   O
  -14.7605   47.4328  -43.9924   S
    6.0672  -28.8726  -48.1957   O
   22.8828  -28.1130  -46.8232   C
   40.5517  -32.7123   -3.4976   C
    0.9108   19.8744  -30.0731   H
  -16.8634   16.6021  -16.2310   N
M  END
$$$$
