Generated Ligand
Programmatically generated
Comment line
100  0  0  0  0  0            999 V2000
   45.5364   -8.5070    9.1327   C
   27.3416   23.8086   49.3433   S
  -47.2304   -6.5887  -16.5129   C
   -6.8782  -10.0272  -34.1522   C
  -30.1942  -23.7180   -5.3894   S
   -0.3427   17.7415  -44.1264   O
    4.2695   47.0525   25.2031   O
  -34.9491   43.3266  -28.5781   S
   32.2925   -9.1256    5.7397   N
  -37.0144   19.4801   40.7577   S
   34.8409  -47.0730   49.9018   C
  -46.0587  -28.7565   20.2817   C
   35.1535   33.9430   46.1667   C
  -16.8332    2.9006    7.3560   S
  -17.0013   34.0923   40.4559   C
  -42.4120    8.2214  -40.0284   O
    9.7927   40.8993  -21.9807   H
   24.0582   26.3632   24.3229   C
   42.1149   47.4234   48.1666   S
   43.1318   49.4846   16.9407   N
  -22.2027  -22.3218   18.0467   C
  -27.0638   10.1186  -36.3532   O
   47.7047   -6.1560   44.9317   N
  -21.0342  -36.2288  -17.1280   S
   30.6742  -44.9697  -10.7384   H
   48.1863   25.7921   22.0507   N
   48.8451    0.3957  -20.3901   O
  -20.2931  -33.9192  -16.4403   N
  -38.6623  -33.1570    3.5574   C
   -1.3493   15.5345   -0.4260   C
   48.1627   13.6030   37.4082   H
   -4.6480   47.5709  -25.6717   O
   48.7147  -24.1611   36.1380   N
   39.5406  -16.2337  -21.4229   N
    6.4226   42.6402  -36.1953   H
   43.1357   40.2793   38.8998   O
   32.7221  -18.9977  -35.8540   H
  -39.0694  -45.6909  -27.4559   H
   23.9991    0.8887    4.8181   H
   36.2946  -49.0855  -12.0233   H
   24.6710  -29.3075   13.4988   H
   19.0421  -20.5566    1.4456   N
   -4.7635   10.5607   48.5711   S
   -5.1904   11.7229   46.4910   H
  -49.8837   39.1305    2.9358   O
   -4.4541   -0.1963   21.3472   N
  -36.1167   16.1277  -12.7836   S
   -0.2031   15.2035  -13.1754   O
   -9.5870  -25.1413  -23.7043   N
   37.1624  -33.4307   18.2166   O
    5.5635   46.2664   -5.8158   C
   47.2807   38.3513   -6.2837   C
  -41.1506  -30.1220    5.8055   H
   26.8515  -19.2349    8.3537   N
   29.5282   17.0291   22.6098   O
   45.4772  -10.5000  -27.0666   N
   22.8450   30.2036   13.3660   O
   29.6229  -49.0661   44.6891   O
  -15.3123  -15.0747   -0.6909   O
   18.2174   43.2497  -14.0867   S
  -47.7699  -17.1076   15.9535   N
   38.2596   20.6346    5.9147   H
   11.0756    0.3027   10.5734   O
   38.5812  -40.1537  -32.0604   H
  -24.6132    9.1521   31.7277   N
   19.6713   19.0230  -12.7673   S
    3.2864   38.0003   20.2984   S
    1.5891  -26.8535  -49.7948   N
  -30.8965   13.2507   23.8526   S
   15.3897  -11.6949  -38.4113   O
   21.5584   14.8086    1.0081   N
  -17.0051   13.4055   22.0501   H
   33.8171   40.6158   22.6308   S
  -36.0148   36.7601   27.3465   N
   39.3045  -45.6340   44.7172   O
  -49.7640  -48.6236  -16.5487   N
   38.2238   37.7286  -39.4103   H
   19.8892  -29.5526  -43.9737   O
   32.7112  -29.3888    0.7799   N
   29.9742  -38.4260  -12.7959   O
  -24.5730  -18.2009   31.9689   H
   -6.2878  -44.2560   38.4066   S
   41.2486  -32.7154  -26.8827   N
    0.7968  -36.9769   15.5044   S
  -23.9376   30.7428   -7.8044   C
   39.7411   17.7887   -3.5725   N
    4.5858   41.7289   39.1369   S
  -22.5319   15.7357   48.9208   H
  -16.1538   -0.6726  -46.2498   S
  -20.3147   38.2802   49.4480   O
   -6.1947   24.5167  -37.6204   C
  -37.8465  -32.6012  -14.9660   N
  -28.4998   38.9967  -45.1616   O
   42.7759   45.8896  -22.1951   C
    6.1957   -3.1016  -13.6360   O
  -40.3701   16.2596   16.3078   H
  -43.9856   34.2581   22.8773   O
   11.9448  -47.8142   15.0042   H
   13.1870   10.2507  -36.8617   S
   21.8061   -3.3450    8.7275   N
M  END
$$$$
