Generated Ligand
Programmatically generated
Comment line
100  0  0  0  0  0            999 V2000
  -19.8464   43.4903   42.4147   N
   28.3067   47.9200   47.6074   N
  -41.0020  -20.2318   30.5992   O
   23.1317   47.4917   22.5650   S
    9.5181  -23.1274  -19.5211   O
  -41.3145   -6.1027   33.0237   O
   35.9910   37.8629   49.6452   N
   10.2033   30.1206  -18.6345   H
  -37.5944    9.8742    6.6934   S
   -7.9678   -9.8603   36.3510   O
    5.4815  -28.5870  -41.0732   C
  -43.9486   22.1531   -5.6439   S
  -37.7678  -49.3609   -8.8783   H
  -39.3151   44.7100  -21.0862   H
   48.6309   44.9006  -32.4167   N
  -31.0954  -30.9424   10.7307   O
  -48.7599   17.3628   13.7555   N
   -8.2273  -39.0890   10.4668   H
  -20.1825  -29.9625  -31.8039   N
   -8.6603   47.5933   40.5667   S
   31.4558   25.7984  -22.7549   H
  -28.2917  -36.9420    3.7499   N
  -29.7485    1.5336   38.3857   H
   31.3419  -48.8393   16.0918   O
    1.9966   44.9169   -0.2674   S
   -5.3872   46.3272  -28.1779   H
   -0.5637   47.3941   21.4711   O
   32.3383  -44.6167  -31.6435   N
  -10.9661  -10.7881  -12.8893   C
   -7.2065   -1.8980  -24.0542   N
   26.2663   23.8046  -17.7903   S
   -2.6797   27.2384   15.8119   S
    0.9536   41.0839   -0.2109   C
  -32.2802    4.1865    8.9740   C
  -20.1301   33.8578   25.4588   N
   42.1204    1.4298   42.7438   N
  -41.5483   11.5232   -1.2540   S
   24.4002   -2.8173   28.1324   C
  -39.2904   29.7520  -25.0023   O
  -17.9377  -40.5903  -28.9879   C
  -35.7890   43.3915   19.8457   H
   40.4945   27.1109    2.0764   O
   -0.6164  -25.8396  -39.3408   S
   16.7283   -4.1688  -39.6548   S
  -20.9795  -44.7698    6.2521   H
   36.2424  -48.8776  -15.3330   O
   -0.5131  -37.0332   -8.0193   N
   22.8272  -24.1617   42.6206   S
   48.0962   24.0793  -40.2613   S
   21.4881   29.8880   22.4180   S
   20.2927   10.1447  -22.7348   S
  -24.9296    5.6388  -47.0953   O
  -27.3288  -23.0589  -18.6334   H
   11.8679   47.1694  -23.9289   N
  -30.9683  -39.9697   45.2471   O
  -20.2724  -11.4493  -19.2422   N
  -35.4137   10.5743  -31.4811   O
  -35.5461   -7.6727  -11.3340   H
   -6.0364  -29.0178   39.0230   H
  -38.0341   44.6854  -34.0022   H
   48.7497   38.6959    1.9218   O
   -9.9341   -0.4367  -37.3871   O
  -18.4656  -32.1503  -12.6779   H
  -48.7809  -24.7769   15.2367   S
   49.9996    5.6908   -9.2803   S
  -24.6408  -46.8840   41.2811   N
  -25.0320  -22.1421  -35.0197   O
    2.7292   -5.7835    8.9323   N
  -16.8055  -42.7932  -21.9199   O
  -23.5887  -38.8473   28.2384   C
  -11.5985  -41.3621  -10.8335   N
   41.1179  -41.8342   -0.2035   S
  -46.1766  -33.8402  -38.7233   N
   27.4611   -5.0165    8.7983   S
  -49.4456   -8.1063   14.9950   C
  -16.6690    6.6178   -8.8187   S
   -6.6861  -37.6429  -11.8072   C
   32.0789  -12.7813   28.5977   O
  -36.6103  -43.7997   16.5264   O
  -38.1641   -1.3652   42.2958   S
   17.5327   -2.7601   14.9687   S
   26.4762  -16.6906   41.6015   O
   20.9426  -16.6412   -1.7240   H
  -38.2655   23.6977   17.1237   S
  -11.7788  -36.3146  -28.9774   O
  -26.6804   15.7520   49.2878   S
   44.1310    9.7682  -11.1647   S
   18.1956   16.0612   -6.5409   H
   27.3548   10.9472  -13.9370   S
   10.8307  -34.7355  -16.3384   O
  -20.6286  -28.3552   34.0643   H
   -3.0810  -26.2682  -18.2433   N
  -49.1611  -15.2445   48.2481   H
  -46.9607   17.3811   24.3540   S
   49.1658   32.2238   48.4993   N
   13.5172   28.6556   38.7863   O
  -43.5523  -14.4746  -12.4046   O
  -28.6718  -26.1373   42.5838   S
   40.3798  -36.4974  -18.5988   C
  -46.5045    9.9756  -25.6496   O
M  END
$$$$
