Generated Ligand
Programmatically generated
Comment line
100  0  0  0  0  0            999 V2000
   19.0238   39.4241  -20.7727   S
  -12.3712  -35.5005  -43.3706   H
   40.7513   47.6577   36.4029   S
    5.9510  -43.6893  -23.2086   O
   24.0985   -5.3725    4.8158   H
   21.1554  -40.0967   -5.2275   O
    4.4370   23.9206   21.7092   S
   11.7961  -30.1143   49.3297   H
  -24.8037   39.7876    1.0537   O
  -27.8296   17.8975    8.6796   C
   -2.9779    0.4210   17.2670   N
   42.9665   24.6565   -3.1861   N
   34.0977  -44.6314   44.9800   O
    8.6122  -20.0769  -23.4857   C
  -13.1408  -19.8153    8.5036   N
   24.2143  -27.0066  -40.3623   O
   -1.5748  -46.4828  -25.1269   H
   -9.9031   11.7026   35.6342   N
  -23.8342   26.4731    7.9415   C
  -23.4108   23.3371   42.4286   S
   46.4964  -18.0294  -19.4047   C
   15.5448  -47.3059  -45.3221   S
    2.1958   11.2080   17.7600   C
    1.0676  -18.8109    6.6264   S
   16.2824   -9.0779   34.7532   S
  -19.5781  -49.1916  -24.8493   C
   25.9830  -48.1151   -7.3902   N
  -32.0973    9.7355   -3.9679   H
   21.6527   35.8831  -30.4432   O
  -25.0260   24.9526   33.1895   H
   38.0241    0.7215   13.7372   N
   29.9459    8.0995   -1.8151   H
    8.5044    0.9635   43.3250   C
   47.0398    5.1079   34.0492   C
   26.0725   29.6033   41.9607   H
  -14.6947  -13.1443  -45.0811   N
  -23.6354    6.3653    7.2018   S
   -6.1089  -26.0923  -44.7660   N
  -31.8919  -33.0940  -46.4135   N
  -49.1993   45.5374   25.2760   C
   -9.9739   19.8745   25.6580   N
    9.5097  -45.0188   36.4658   H
  -21.1901  -19.2632   45.0280   S
  -12.0502   37.1616  -16.8458   O
   -2.8334   26.9238  -35.1792   O
  -14.8772   26.9557   10.8124   H
   28.4122   26.5536  -11.7496   S
   28.5639   36.2698   48.8954   C
   28.8793  -46.0338   11.3964   C
  -20.5389   49.2753   46.1742   C
   -8.8357  -14.7014  -44.2624   N
   31.0519  -32.5384    9.9184   H
   -8.3316  -45.6185  -31.5609   H
   22.1552   46.7249  -39.8368   O
   32.1604   13.2671   -9.6833   N
  -42.8874  -40.6481   19.1626   C
   29.9062   -5.5424   47.2594   C
  -12.6103  -29.1247   18.7964   O
  -24.4614  -22.0782  -13.8257   S
   19.2444  -20.6586   44.1766   C
  -33.2922  -11.4248  -12.8117   H
  -45.2754  -46.8417   24.8392   H
  -25.4099  -30.5796    8.7695   S
   -4.1052  -13.9768   47.2016   C
  -35.5009  -28.3774   18.4077   O
   20.3992  -10.3039   46.5010   O
  -41.8029  -30.3225    0.0194   O
   35.6938   41.5532    7.2136   S
  -45.7337  -33.4993   45.5877   O
    6.4877   -0.8551   -5.2720   H
  -45.7312   35.6509  -15.6370   H
  -47.8163  -25.6104   49.3803   S
   -1.6230    5.2322   23.5943   O
   16.9510  -27.7471    8.8560   O
   21.6095   31.1517   -9.3307   N
   44.1537    0.4852   33.6553   N
  -11.7095   30.8373   19.1224   O
   -5.6426  -48.6731  -27.9814   C
  -14.7459   23.0037    5.8876   S
   15.3449    5.0300  -40.1090   C
   -1.5402   46.0999   38.7581   O
  -35.9028   29.1307  -16.7922   O
  -34.7447   41.7180   15.4504   N
   39.0805    1.9202   -5.7680   S
  -18.1590   25.3661   11.6762   O
   19.5415  -49.7228   19.1128   O
   10.0765  -30.8421  -38.2064   S
   14.4609   39.5039    3.1007   H
   14.7655  -22.0665  -42.3785   H
   45.0409   36.5298   12.7872   O
   20.0129  -27.7830   33.3671   C
   18.7572  -41.7187  -29.1300   S
   25.1199   -5.5669   12.2729   H
   45.5082   28.0618  -24.7284   N
    9.4403  -25.4606  -39.6976   H
   24.5409   35.0731   -5.8607   N
   49.1566   -9.3809  -21.0086   N
  -37.1303   20.9651  -14.4642   O
   -9.6997   11.4494   23.1751   N
   43.8738  -44.0576   12.4187   H
M  END
$$$$
