Generated Ligand
Programmatically generated
Comment line
100  0  0  0  0  0            999 V2000
  -38.8917  -48.7245   46.7081   N
  -48.5334   18.4347   43.3731   O
   25.7289  -24.0949   10.0427   N
  -13.6321  -28.9823  -20.1255   H
    7.7533   -6.9109   -5.6684   O
   26.3247   43.2442   26.5790   H
   -1.5027  -13.1858  -24.9805   N
   -2.6568   37.4271  -23.3936   O
  -16.3934   23.7602   -9.1598   S
   22.3766   32.0551  -24.7686   S
   43.1510  -11.3326   -1.4058   N
  -46.5861   20.7450  -38.2046   C
   -8.5637  -17.8753   46.8498   C
  -13.7876  -23.1602  -25.3855   O
  -14.6338    2.3634  -47.5003   O
  -39.7257  -33.0748  -39.4128   C
   46.3371   46.1384   -6.0868   O
  -41.5837   10.2930  -30.4822   S
  -43.1071   13.5469   32.3211   H
   30.9994   -6.3210    0.9885   S
   -5.5163  -43.0642  -47.4392   O
  -14.6762   -4.1080   46.9181   N
   18.7988   15.7612   36.9614   N
  -38.4291   13.0938   32.0476   S
  -39.2421  -42.6884   37.6129   S
  -25.8651   12.1109  -27.0581   S
  -17.0746    9.8154  -48.4332   C
  -39.2254   38.3351   37.2448   O
  -17.6890  -12.0288    6.2431   H
  -49.1417  -46.2799    4.8705   O
  -17.2671    4.4258   28.6218   H
   -9.9731  -47.4465  -14.9119   O
  -32.9074  -21.1115  -14.5693   H
   11.0757  -28.9161  -24.5062   C
   -4.9389  -49.4041   15.5839   C
   24.5846    2.5370    7.3895   N
  -44.2246   42.1693   45.6500   N
   -6.6549   48.1806   48.4816   O
   37.6125   39.0374  -44.3735   C
   20.6765   -6.6612  -30.1607   N
  -10.8060   31.6166  -38.9652   S
  -33.0655   45.5688   27.7721   N
  -45.4863   -4.0039   26.7165   O
  -30.5677    5.4835  -39.6162   O
  -43.2225   48.7568  -24.8767   O
  -44.8423    6.6500   29.0535   C
   -1.8815   43.4181   23.9665   S
   12.1722   45.5346  -32.3185   O
   -0.9801  -29.2771  -32.7398   O
   32.2261   -8.9901  -17.1930   C
  -37.2359   -8.4365   12.6490   C
  -18.5860   30.3176  -11.3182   H
  -35.3782   18.0415  -25.8543   C
   26.4625   23.8518  -32.9697   O
   -0.3533   36.4558   -8.2919   S
  -46.1763   18.4408  -43.2537   H
    1.8261   17.3232   41.6733   C
   35.4035   -0.5724   33.3517   N
   -9.8248    1.4601   29.2536   S
  -16.8740  -42.6801   17.0682   O
   -2.3448   45.9470   -1.8266   C
  -44.2586  -19.3476   29.4822   C
  -41.3898    2.3959    9.3875   C
  -11.1519    2.7837   44.3576   C
   26.0380   22.4779   47.6522   S
    9.7096   30.3289   42.3267   N
    4.7980   38.6915   13.6952   O
   14.5200  -31.5864  -25.6207   O
  -18.6763   -5.1342   18.1495   O
    7.5878    7.6522   -6.0282   C
   44.2344  -25.2545  -15.0119   N
  -41.9396  -12.8964  -41.4089   N
  -11.3530   14.4658  -35.2531   S
  -15.0597   13.7656   33.6471   H
   28.1998   -6.4010   13.8709   C
   33.3274   47.9749   41.9954   C
  -26.0736   -2.6319    0.7592   O
    1.3760   44.4326  -29.4772   O
  -24.7980   -2.2822   -6.5717   O
   29.4744   -3.7452  -12.1411   N
    8.1989  -22.1560   14.5063   O
  -33.1212  -12.6508  -29.5069   O
  -11.9294    5.9981   48.9192   N
   15.3857    2.6907   47.2852   C
  -12.5756   -1.3661   23.6130   H
   45.4115   12.7509  -29.2340   N
  -15.2340    5.5995   27.7691   O
    2.4321   29.4720   36.3538   H
  -43.1739   47.7358   11.5473   C
  -19.0839  -24.8560  -11.1614   N
    1.8223  -27.3519   43.9097   S
  -17.9631   15.4731   42.7037   O
  -44.4908  -37.8895   28.7625   O
  -21.9749    6.7508  -23.6603   S
  -14.4860   -0.3752  -48.8495   S
  -19.7121  -33.0554   25.7112   C
  -44.4738  -26.7699   42.2069   N
   47.2154  -20.6544    3.6617   H
  -12.3112   15.5277   46.9885   O
   19.7255    4.4436   10.6550   S
M  END
$$$$
