Generated Ligand
Programmatically generated
Comment line
100  0  0  0  0  0            999 V2000
  -46.7954   18.5383  -39.1116   C
  -46.3513   13.0581  -23.6585   O
    3.5368  -40.3721    1.0629   C
   14.4613   41.4518   46.3324   S
   28.4315   24.9474   47.7717   O
   19.2633  -49.2599   -4.1327   N
  -46.7700   37.9058   26.3862   H
    5.0834   41.4191   18.7666   C
   -2.2405    0.9493   25.0596   O
    0.4573  -27.3720  -13.9165   S
   11.2552    5.6737   32.7412   C
   28.1893  -40.5570  -42.9760   S
   -9.2614   39.3078  -40.3319   N
  -36.8903   42.9281   25.9173   C
  -11.3024   22.3171  -16.1328   O
  -21.8559   10.3621  -36.4627   N
   49.1269   42.1055   11.8623   C
  -13.8218   -5.3850  -46.7169   C
  -32.4021   41.3256   34.5417   O
   22.3568  -36.9458  -11.5725   C
  -22.9565   -2.7037    9.7117   O
   45.9252  -19.1738  -46.6301   O
  -16.0870    1.4829   15.9871   H
   45.1173  -47.7804  -17.1255   C
  -45.3620  -33.2476   -4.4168   S
  -12.6065  -31.8708   21.5209   N
   11.6685  -37.8634  -20.5911   O
  -33.1993  -24.3151   11.0370   N
    9.2875   -8.7674   33.6099   H
   24.2225  -25.5231  -17.4341   O
   -5.4314   -1.2538  -27.1525   N
  -44.3832  -46.3740   27.9775   H
   16.0909  -13.3581    2.1552   O
    4.8646    3.3271  -32.9364   S
   39.0471  -11.5822   10.5959   N
   27.8580   -3.3002   -2.7329   O
   39.4584    2.9747    3.0960   N
   37.3701  -13.2667  -21.2084   S
   -3.1563   -6.2958  -35.7790   N
  -18.0442   34.9433   -2.2977   S
   45.6273  -33.7875   45.3651   O
   22.3255  -21.5359  -22.0225   H
  -19.2292  -46.4299   14.0071   H
   30.3486  -12.6555  -41.4397   C
  -40.6009   24.2143   -7.3015   H
  -12.9439  -47.6626   11.4932   H
  -26.2403   12.0224  -32.7275   N
   24.1833    6.5267   14.7959   S
   49.0835   11.9440  -38.3420   C
  -27.0184   48.0862    7.9133   H
   10.1373   32.1159  -36.3641   H
   -0.8988   26.5816  -25.0913   S
   49.2007    6.1198   28.0373   N
   38.8945    0.5921  -39.2414   N
   -7.1395  -14.0448  -35.1282   O
   -3.5243   27.5861  -33.0977   N
  -30.1535   32.4814   43.6829   O
   30.8273   32.2063  -30.1330   H
  -37.4098  -11.8918   46.6866   S
  -12.2292   -5.7678   46.7557   O
  -38.3623  -26.8388   17.9688   O
   43.7234   35.7629   36.5690   C
  -35.6593   18.3329    5.2413   H
  -27.7915    2.7665    7.4147   C
   -7.0492  -35.1397  -27.2228   C
  -17.6224    7.0762   49.8033   S
  -30.8906   -5.1922    6.1595   C
  -20.1046  -27.3973    4.1090   O
   -2.4953   44.0084    2.7935   C
   28.8210   -6.3421   30.7652   H
   -4.4970   35.6593  -21.2823   S
  -19.3098   -8.1531   22.2904   S
   34.4780  -14.0205   -3.6084   C
   -9.7061  -29.9258    1.9397   H
   39.0763    0.7080  -32.8852   C
  -18.8182   12.6797   25.6076   O
    9.9082  -47.0857  -49.4891   N
  -43.7889  -16.3396   -9.6762   H
   46.0252   21.0949   -9.3347   N
    1.9998  -40.8997  -15.9316   O
  -13.8757  -32.0795   17.9762   O
   47.4599  -21.0716  -35.9438   N
   45.8521   43.7375  -13.0208   S
   47.6179  -22.8561    7.9998   H
  -10.6299    0.7608   28.8739   O
  -24.8121   -9.8027   38.8520   N
   34.8014   23.1297   45.6390   S
   43.8935  -46.0072   21.1963   N
  -30.3166   44.3331  -35.2173   C
  -48.5655   27.5292   32.9601   C
  -45.5207   46.7679   49.0991   O
  -46.8707  -26.4517   -6.9417   S
   37.8869   11.0985  -10.3633   O
   19.0872  -11.2439    5.9762   H
   -5.5915   46.8885   -6.5749   N
  -40.9436   -7.4636  -47.8505   S
   35.5448   16.4806   14.7722   H
   37.9107  -32.4034   14.9673   S
  -17.7452  -22.6620    6.2060   S
  -36.8231   17.4108   -4.6161   S
M  END
$$$$
