Generated Ligand
Programmatically generated
Comment line
100  0  0  0  0  0            999 V2000
   38.8679  -34.1919    0.2104   C
    2.5917   21.3788   -7.3462   S
  -14.8713   37.8475    6.2698   O
  -14.1585  -11.1706   12.3961   H
  -29.3706   20.1293   -5.9182   H
   17.2134  -31.8255   -5.0024   C
   29.8003  -25.2225   10.7474   C
   19.7234  -15.3434  -45.2549   C
   47.2601   10.0551   32.5162   S
   29.4360  -18.9668  -16.3314   H
  -32.3477  -32.5669   15.7605   C
   25.6197   28.9966  -43.8941   O
   34.7589   -2.1029   26.5786   S
   25.8203  -32.5849   45.4459   N
  -31.6803   35.1570   15.4405   S
   19.6766   -3.5864  -12.7481   O
   10.0807   21.7283  -45.3846   O
  -17.9427    3.2498  -24.9885   O
   10.4764  -40.3082   16.9059   N
  -17.8381   -0.4428   37.9600   S
    6.3329   22.3836   44.5521   S
    7.6977  -42.9764   46.2744   N
  -33.6349  -31.8621  -16.6600   S
  -23.5323  -36.7049  -30.1778   H
   39.5853  -26.7505  -12.2324   N
    1.2758  -22.6044   45.5905   O
   38.0929   -3.5108   35.8169   N
   15.4520  -16.4870  -25.8752   C
   13.1938  -37.5881   41.6513   C
   11.6658   32.7026  -49.7382   H
  -17.9718   32.1110   -9.7617   C
  -16.2866    5.1040  -13.6937   H
    5.6138   42.0705   46.7260   S
   28.2720  -17.7936   27.3379   N
  -40.9260  -18.6429    1.4493   N
  -33.6897   19.4170  -47.1908   C
   30.9071   38.5512   46.6276   O
  -39.0801  -18.6127   33.1760   O
   34.7017    3.9833  -42.9800   O
   40.5111   -0.7688  -24.1256   O
   38.5420  -42.9413   44.0029   H
  -48.1058  -44.3504   26.0786   S
  -31.4027   44.4983  -11.0056   H
   35.7027    7.9910   31.0755   N
   44.1373  -23.6949  -21.3127   C
  -35.7658   -1.5151   30.3951   S
   48.9030  -18.6534  -34.0129   O
  -41.7678    1.7818  -49.4418   O
   41.2035  -19.3468  -45.3500   O
  -49.5974  -17.1338   39.5864   O
   -6.9474  -41.8619  -21.9200   O
  -34.6639  -36.3174    0.6981   C
  -49.3784   10.6909   43.6361   S
    6.0470  -28.5589  -47.9836   O
    0.5932  -25.0050  -33.0970   S
  -31.2296   12.2583   39.3620   S
   25.7105  -29.9296   23.9306   O
   21.4182   32.0456  -35.0374   H
  -20.2542    7.3126   18.9453   S
  -27.7377   15.5668   43.0498   S
  -49.3520  -48.9729  -48.3944   O
   21.8748    3.3887    2.7895   C
  -33.2645    6.6641   18.6208   N
   15.0714   47.8262  -14.1794   H
    3.7622    6.8200   41.5232   O
  -10.4869   39.5889   43.4049   S
   -3.6511  -45.0398    4.2104   S
    9.9961   43.9546  -38.0861   O
   32.5415  -25.6265   23.1200   N
  -10.2418  -23.5175  -21.8842   N
  -24.0134   35.8818   43.6770   O
   49.5985  -33.4559   -3.7575   N
   -9.5785  -28.7374   -7.2458   C
   37.3916  -14.9827  -14.5006   N
   24.1262    4.8487  -44.5588   H
  -49.5118   26.7579  -18.3527   C
   33.8973   -4.6417   -6.0769   O
   -6.6869   24.3581   32.6323   S
  -15.0615   47.0513   26.5772   S
   30.1657  -46.5763   -3.1122   H
   33.8284  -25.3638  -13.4430   S
  -38.0144    1.5982   18.1984   S
  -26.8439   35.0155  -21.0292   O
  -18.9363  -37.5972   44.9463   O
   31.6076   32.3736  -25.2875   N
   20.0357  -14.8785  -28.9303   S
   11.9058   15.1162   38.9046   N
  -22.7753   14.9752   25.3728   O
  -25.9204   12.5118   36.4045   C
   42.2338   19.2377  -17.5037   S
   46.6884   -2.4488   28.9664   H
   20.9375   48.4508   24.4273   N
   33.1779    5.3802   38.7084   C
   23.8921   35.6965  -33.7750   S
    2.9176   38.3455   48.0411   O
   -3.2063   39.9694   38.9591   N
   17.2173  -18.7138  -36.3810   O
  -18.0163  -37.0931    2.5142   S
   14.3645  -12.4774   41.6095   C
   49.5058   -1.1100   26.6328   S
M  END
$$$$
