Generated Ligand
Programmatically generated
Comment line
100  0  0  0  0  0            999 V2000
   29.6565  -29.7287   25.9712   C
    1.8302   44.4723   10.0330   N
  -42.9083  -11.5560  -38.9210   S
    9.3618   -1.6186   -3.8662   N
    3.4171   -4.6045  -46.4320   N
   32.6436   33.6081  -38.6301   O
   20.5954  -34.2935   24.4733   O
   20.3561    3.6658   -2.6479   N
   36.7942  -14.0524   32.1422   C
  -44.7678  -28.5192  -43.9488   N
   20.8907  -31.3919  -42.2916   O
   -1.1961   -7.4393  -38.2720   N
   44.2585  -37.1602    2.0900   O
    1.8409  -24.3095   26.7042   N
  -46.4169   16.9404   46.8407   S
   48.2939   31.2805   16.7134   C
   -0.6101  -39.7426   21.5031   N
   28.3529   38.6069   -1.6702   C
   45.3048   -3.1584   44.7860   H
  -37.0049   29.8433   20.6597   O
  -42.5939   40.0671    8.5042   H
  -37.0360  -14.7068  -30.5705   O
  -41.9686   15.3484  -45.6580   H
  -32.3003  -39.6446  -41.1550   O
   40.0006  -47.5593  -22.4200   O
   -9.5681    5.5464  -13.9298   N
  -44.7743  -48.6710  -13.0107   O
   12.5862   39.9760  -14.3898   H
   36.2375   -8.1870   28.7687   H
   47.6088   45.3620  -35.7245   S
    8.2706   47.5888   15.0724   H
   34.4771  -33.1831    5.4310   C
   48.7291   -2.6672  -46.0754   H
  -11.9495   30.7136    9.4941   O
  -41.9024  -16.2589  -13.3047   N
    9.2906   -8.9753   49.0509   S
  -28.5927  -39.6745  -43.7440   C
   28.6566   -3.3267   10.8783   H
   17.0683   -0.8275   23.7946   O
    4.9863  -22.7906  -23.4411   N
  -39.1261    1.2479    8.1315   N
  -16.4871  -47.2865  -16.8274   N
   29.3160   28.1532  -48.2588   O
   14.4635    9.7605   45.1306   C
   11.7097  -24.9047   13.7087   H
   48.9054   28.8662  -25.0751   O
   38.0803  -17.9359   13.8169   S
   43.3304  -14.6970   -7.8872   C
  -45.1831  -37.0871   48.9935   H
   28.3888   15.5237  -13.0621   H
   15.5484   -1.9518  -37.9241   S
  -44.6288  -10.9137  -38.7411   C
   27.3270    0.2965  -21.6945   H
   18.6725  -36.8013  -43.2846   N
   18.6582  -38.4153  -40.0870   C
   45.3620   -0.8945   36.7811   C
   30.9812   45.1837  -28.1937   O
   30.6504  -14.7370  -24.0491   C
  -19.7557   28.2450  -41.4572   S
  -40.3108   23.3099   -8.5532   C
    4.8096  -20.5756   39.5332   S
   18.9435   15.4397    2.3132   O
   38.3716   -6.0660  -30.1012   N
   48.0025  -40.2412   -2.5357   C
   17.2461  -21.5529   -0.2896   N
   16.0301  -21.0259   14.0584   N
   10.3284  -44.4865  -33.8420   H
   14.4925   41.8593   -9.6572   C
   48.5978   -1.9661  -47.9284   C
  -39.5610   41.4671   23.2226   N
  -12.9803    0.3302   29.1959   H
   -5.3372   10.8489  -21.9276   H
  -10.5221  -15.5349   23.5467   O
   35.3058   48.1041   -3.0135   C
  -26.7883  -18.6023  -23.7381   O
   21.4128   18.0720   23.0369   S
  -31.6215  -29.4672   -7.3399   C
  -44.9171   22.0002   14.2197   O
  -48.5088  -25.6641  -23.8837   C
  -18.2094    7.9193   21.2719   O
   31.6542   29.0149  -27.1164   S
  -43.2454   42.9380  -44.2872   N
  -12.2653  -31.0140  -27.6766   N
  -32.6843    0.2083    7.7730   N
  -49.2367    6.5378   16.8700   H
  -29.5875  -28.0560  -39.3550   N
   12.7953  -41.9236  -26.5591   O
  -47.7749  -29.7286   35.6446   C
  -30.8874   24.2274  -22.5515   H
   49.2153  -22.5183  -18.5302   N
  -39.6195  -15.2889   45.3620   C
   31.0332  -10.8331   49.7129   N
   27.9972  -20.3945   19.3641   N
   22.2516  -47.3534  -34.2989   S
   12.9625    1.4802    6.8017   H
  -24.6041   36.5872  -14.0346   O
  -22.2086   -3.2563   40.4402   S
   37.9652    3.5493   18.0314   O
   33.4745   -4.0882  -30.5932   C
   -1.6023    8.8076   15.0990   S
M  END
$$$$
