Generated Ligand
Programmatically generated
Comment line
100  0  0  0  0  0            999 V2000
  -41.8245   -1.8277  -40.3833   C
   13.9370   41.8380  -47.1539   C
  -28.0171  -43.3763   13.1644   H
   18.7199  -36.9942  -17.9244   C
  -32.2493   48.4786  -46.0155   N
  -28.2601   39.4378    9.6649   N
   28.0222  -41.1190   -9.9222   O
   42.0170    8.2218  -44.3843   N
  -25.4511   29.9128   31.1710   O
  -27.4775  -20.9912   24.5861   O
  -37.0670  -28.1506   47.5047   O
  -35.0527   45.2204   27.4302   C
   -5.6716   29.8940  -11.2826   C
  -41.4150  -44.7550  -30.2646   S
   14.0600   39.2289   44.9252   C
    2.8597   35.3583    8.6974   N
   36.5694   13.9648   -4.0070   H
  -26.6159  -29.0542   42.9302   O
   10.3842   24.7140  -25.2950   C
   13.8501   41.8482   10.5121   C
   19.7700   49.7347   35.5561   S
  -47.4684  -21.7193   15.1636   S
    5.7083    8.9185   20.1054   S
  -18.7465   -1.7798  -13.0751   C
  -40.6020  -29.2750  -41.6376   C
  -18.5854  -41.0978    9.6210   S
  -23.2640  -26.2015   34.2979   O
  -34.6036   -1.0506   46.1896   O
   24.1840  -23.5931    3.4560   S
  -23.7301   -4.6143   16.6416   C
   16.5231  -24.5777   13.5380   H
  -11.0266    2.1604  -13.4255   N
  -36.5584   19.5686  -23.8304   O
  -27.7733  -11.2374  -27.6008   N
  -41.0873  -15.0109  -47.3916   H
  -22.6088   24.9242   26.9823   N
  -36.6003   -2.7798    7.4233   H
  -44.9650  -37.2503    9.7519   S
   49.5765    1.6732   -5.5282   C
   24.4753  -12.2843    0.0942   S
   -2.8732  -32.0005  -49.6900   S
   15.0004   -6.9466   -9.6388   N
  -20.9593   45.8681  -14.9468   S
   -1.7443   -7.7900   -0.1751   O
   31.6551   -7.7539    3.9155   O
    3.4074   43.0850    8.0764   O
   37.5253   25.2357  -20.8032   H
  -13.1685   21.2278  -28.6888   H
   15.2116  -48.4085  -26.7932   H
  -45.1265  -35.5862  -11.5881   S
  -37.6814  -25.2025   34.0474   O
   28.3570   45.8013   -6.0734   C
   26.1582    0.6700    8.6189   N
  -34.4102    4.3705   -2.7017   C
  -13.4237  -23.3506   41.8774   N
   23.1495  -15.7192   19.4966   N
  -22.2486   -3.2328  -48.1929   C
   33.1814   13.9470   28.6215   S
   -7.7223   32.2455    2.4900   H
   19.8013  -16.1749  -10.9956   O
   -1.2767   -3.4281  -28.4054   N
    9.4461  -36.2943   15.9242   S
  -12.7272   44.5433   33.7891   S
   27.8024   15.0642   37.7152   S
   34.1064   34.8123  -35.8297   N
    5.9404   -7.5193  -18.1655   O
  -32.9211  -19.9453   -7.8496   O
  -36.8443  -25.5690    6.2403   H
  -36.9717   -4.2234  -44.7114   C
  -20.6168   12.3203   36.0366   C
   44.7408  -15.3649  -38.7876   C
   30.7604   16.3925  -29.0806   O
   43.6546    4.1748   46.3607   O
   43.6224  -47.9000  -12.9974   N
   13.5673   -3.4323  -16.7543   S
  -36.3501  -15.7928  -33.0203   S
   48.5335   48.8820   45.5501   S
  -48.4340   11.6990   14.9442   O
  -31.2097   21.0533   29.1033   C
   39.6678   -4.6975  -16.2590   H
   18.0569  -21.9751   25.4898   N
   -2.8543   12.0438   31.3485   C
   30.3747   26.5976    5.9316   H
   14.7961   43.5004  -33.0014   S
   29.1435    5.3728  -11.8105   S
   -0.4364   36.2453  -38.3057   O
   39.8631   19.1943   -1.4711   N
   45.5052  -33.8000   43.5334   O
   19.6837  -45.8846   -0.1479   S
    4.8910  -42.2084   16.7698   H
  -30.1156  -19.5983   -7.3859   O
   -3.4991  -20.1586   47.1871   O
   -0.1881   23.8639   -6.6952   C
   28.5057   32.3893  -39.7258   C
  -47.7424   12.3556    4.9739   O
   32.5461   25.4452  -41.4176   O
  -44.7985   -6.3741   30.3596   O
  -49.4615   37.1373   22.3797   H
    8.2754  -23.0898   10.8845   O
  -44.2272   29.1002  -27.4297   C
M  END
$$$$
