Generated Ligand
Programmatically generated
Comment line
100  0  0  0  0  0            999 V2000
  -21.3639  -29.4667   37.9347   C
  -27.1570   19.0618  -27.4256   H
   49.6515   43.6142   39.7157   S
   44.4946  -39.5866    6.7835   N
   21.2216    8.3541   21.4282   H
  -33.7470  -26.7706  -11.9252   O
   25.4087  -30.0832  -36.6414   C
  -46.9160    1.3111    0.5340   H
   37.5506  -44.6719   42.6730   C
   -8.1963   26.3464  -19.9616   N
  -12.4251    9.5950   37.7408   O
   47.8491   37.5385   37.1087   H
   12.4964   23.0469  -10.5564   O
  -40.5175   45.4397   32.6412   N
    6.7988   -4.9181   -5.8116   C
  -48.8317  -35.5671  -49.3802   C
   11.4669  -45.0926    1.1801   N
   27.0294  -26.6883  -42.3698   C
    1.6667  -30.4718  -42.9143   H
  -47.6535   25.3793   22.0543   O
    7.5160  -29.7240  -14.8729   C
   31.9110   -5.1803  -19.6308   H
   41.3680   34.1056  -38.3064   H
  -32.7641   -0.5726   34.6382   C
   38.4802   -5.1149  -23.4277   C
   40.3743  -16.0065   12.5176   N
  -33.3345    9.2690   20.0713   H
   46.5624    5.0299   15.6197   S
  -37.5522   49.8494    7.1832   C
  -28.8326  -34.6101    2.4054   O
    1.1485  -28.2481   24.4874   N
  -23.0430   15.1857   14.6843   C
  -35.1352   29.8269  -19.2252   C
    3.8842   43.7326  -37.1663   H
   41.1192   27.1198   38.4795   S
  -41.5915   43.6638  -20.9055   S
  -19.9764   -8.5689   28.7941   C
  -21.0488  -39.7504   21.5496   C
   11.5044  -15.5778   -8.0165   S
   15.5235   11.0322   14.1045   N
   11.7964   18.8331   16.6234   H
   19.2702  -15.0609  -22.3799   O
  -27.4717   12.3307  -10.4172   N
  -19.9469  -40.1315   36.3902   S
   31.4786   38.4970    0.4858   O
   29.0638   14.8025  -36.2956   N
  -28.2055  -26.0175   22.9140   O
   -8.4756   42.1267   44.1587   S
   30.0933   -8.2181  -48.4888   S
    8.5800   28.2114  -41.4152   H
   24.3339   11.1494   -5.1958   S
   20.7593  -11.7577   49.7051   S
  -42.9648   -8.4515   41.6892   C
   43.8475  -11.0265   33.8051   N
  -24.5594    7.2342   20.0348   S
   36.9832   -0.7512  -15.4228   O
   47.8515   42.6547   35.8666   H
   43.1685  -31.9176   45.5630   C
   31.8802   35.5212  -44.2192   S
   -0.1016   -9.4400   -4.3680   H
   41.4658   13.5914  -28.0107   O
  -37.7190  -20.1976  -37.8497   C
   43.4143   23.0247   28.5797   C
   36.9571   29.0436  -29.9398   C
   20.3355  -41.4365  -41.7291   H
    5.2448   22.2057    1.7274   C
   25.5516    2.0750   15.8061   S
   49.5646    2.2059  -25.1087   N
  -15.4720   22.1675  -20.0271   N
  -13.6829   24.6019  -31.4901   S
   10.2517   18.5459  -49.2287   N
  -15.9352   25.3262  -25.7613   O
   34.3563   14.5645   -8.3877   C
   -9.3750  -30.7521  -31.1298   S
   48.4407   29.2690   28.1223   H
   44.2602   -8.4839   27.4731   C
  -16.3827  -21.0279  -23.1939   O
  -27.6957  -46.0637   21.0506   H
   11.2372    7.7248  -11.7747   S
  -27.9363  -31.0472    5.6280   H
  -23.3339  -29.9149    4.8491   N
  -45.9047  -36.3039  -40.0795   N
  -38.5802   37.6474   20.9095   C
   43.8851  -18.8828   49.2011   N
   43.7028   30.6865  -41.0420   S
   19.9098  -44.9022   36.0254   O
  -40.3028   14.6223   24.9943   C
   28.8927   19.6294    9.7709   O
    9.9245    3.9950   17.3339   C
  -33.3950  -15.2135  -13.9605   N
  -19.4747   10.8098   23.6382   C
  -27.9186   27.5489   16.5737   N
  -20.5513  -49.2172   36.3533   C
    8.3867  -16.5975  -31.0641   H
  -25.3485   43.1583  -25.3823   S
   43.0584   14.2831    5.3283   S
   21.8178   45.3508   23.1897   S
    6.2045   46.7014   30.8314   N
   33.1203  -49.9617   17.8507   H
   -5.9778  -35.1859  -12.7939   N
M  END
$$$$
