Generated Ligand
Programmatically generated
Comment line
100  0  0  0  0  0            999 V2000
   10.5501   14.8440  -23.6782   S
  -29.1176   12.1230   11.6461   H
    3.4308   -2.6218  -33.2124   H
  -21.0215  -15.6095   38.8242   O
   23.8668  -34.0721   48.3751   N
   28.1085   -7.7778   40.2359   C
   35.2895   34.5045  -45.4967   O
  -18.1453  -36.4956  -43.3897   O
   16.5528   -0.2962  -28.5588   N
  -15.8714   26.2991   35.7468   C
   -0.8300   12.3038   44.7780   C
   42.4813  -32.1661   26.4500   C
  -21.0514  -45.0511   22.5102   H
  -14.2619   46.7442  -38.3989   O
  -11.6080   37.9060  -49.5067   O
  -22.1815    6.7202  -27.5708   C
  -11.6250   16.9105  -48.3765   C
   18.8365   -3.4739  -21.6914   N
  -48.8117   14.6781  -44.2893   S
  -45.7297  -11.1723  -22.4365   H
   46.9775   37.7357   32.2440   O
   -6.2554   40.9583   -6.1041   H
  -25.2866   34.6913  -17.1969   C
   44.9650   48.0113   39.1839   O
    8.4926    6.7040  -44.5506   H
  -43.9606    6.5251  -34.8364   C
  -22.1978    9.2081   30.5874   N
   39.3539   33.2711    8.8680   C
   13.2086  -34.1386   48.4876   C
   31.0378  -47.2609  -44.1658   C
   49.6929  -26.5808   16.1770   N
   27.2631   -3.5694   33.8277   S
  -12.2831  -18.8541  -47.2481   C
  -49.1304   29.2242   36.1835   S
  -49.9090   10.1652   27.5153   N
  -36.2144   22.8428   -3.6727   O
  -14.4524  -36.3318    7.3629   S
  -23.2946   17.4603  -26.2448   H
  -16.3566  -10.7853   27.3818   S
   36.5958   39.5915  -25.1025   O
  -16.9629  -36.2168   26.0573   O
   26.4118   37.2217  -40.6641   H
   35.1033    7.0630  -10.4879   S
   14.6288   -8.8154  -11.3475   O
   40.7252   -3.1776  -20.8806   C
   -4.1906  -22.7659  -49.2322   O
  -31.2792  -14.3298   34.4988   S
  -31.5571  -15.5239   -9.2188   C
  -45.6302  -23.9511   -2.2086   S
  -28.3945  -28.5806    5.5636   S
  -13.0399    4.7903  -49.3524   N
  -19.3027   -8.7473   27.0679   C
   36.1119   -2.8693  -19.3725   C
   20.9113   27.5205    6.2575   S
   31.8748  -34.2244   17.6151   H
   24.2668   29.6113   10.4801   C
  -18.8771   24.7548   24.6067   C
  -29.3571   21.3660  -34.0258   C
   -8.5764   -2.3770    6.1188   N
   -7.9255   27.0907   16.5451   H
  -25.0752  -10.1235   28.2041   N
   23.2629   27.8957  -38.4703   S
   36.1106  -40.5418   29.9178   O
   14.9225  -30.5607   40.9890   C
    1.2269  -11.7805   17.1761   N
   46.7152  -14.5603   42.0223   H
   -7.0042   14.3846   12.9076   N
   14.6249  -14.0636   -9.8757   S
  -17.5245  -30.6960  -43.4713   O
  -49.6801   -5.3606  -16.2081   N
   31.8467   -5.7629   46.3144   S
  -20.2689  -34.9259   23.3586   O
  -23.5963  -36.0501   42.8441   C
  -41.6659   37.5818   46.6387   O
   29.5919    3.0184  -41.3604   O
   21.7853  -13.2873  -43.1741   H
  -46.7416   47.8511   -7.8461   H
  -14.3455   46.9327   49.1298   S
  -11.5573   13.8507   49.1413   S
   17.4050  -13.8960   31.5302   C
  -16.3645    8.2812   -0.0942   C
  -49.8217   46.0948  -16.7932   C
  -29.2463   43.0909   -2.7058   H
  -39.0895   -7.1475  -33.8872   N
   -2.6892   14.9164   20.9258   H
  -42.4435   20.0266    4.3574   O
  -49.6522  -39.8602    0.0978   N
   42.5846   17.2885   -7.8529   S
   38.9325   -4.9561  -27.4212   C
   20.7740   21.4377    6.9008   S
  -37.0570   41.6815   14.7094   N
   42.3571   49.6513   36.3294   S
  -28.6552  -30.3289   14.7144   O
   -4.1440  -13.5804   -4.6892   O
  -27.6480   49.3958  -29.9879   H
    4.8851  -28.8158  -39.0149   O
   -8.2804  -36.4377   43.0750   H
  -47.1568   36.8416   43.9047   C
  -20.6519    1.3248   15.3634   N
  -22.3530  -22.7860   36.2081   H
M  END
$$$$
