Generated Ligand
Programmatically generated
Comment line
100  0  0  0  0  0            999 V2000
  -11.4611   47.8937   -7.8530   N
   24.4284   14.2130   -8.9592   N
  -18.6360   12.5818   -0.1785   C
   49.9962   37.9414   27.3611   N
   43.6338  -22.9898   20.2483   C
  -18.3027  -15.2705  -12.7987   C
   19.7348   -4.6982   13.2522   S
    7.5154   29.8259   18.6241   H
   24.8743   -0.1010   22.2982   H
  -19.8880   24.6533   25.6727   C
   22.3178    8.9002  -21.1355   N
   22.3952   22.6181   18.2056   H
  -14.5706   28.4005  -19.2097   C
    6.9794  -19.7642   47.5552   S
   39.4353    1.3215   27.7183   O
   11.4893  -42.7339  -43.0773   O
  -22.8789   -0.6227  -45.0020   O
   37.5355    4.1909   42.7303   S
   17.4595   43.5264    1.5278   C
   -9.2192   16.3861  -37.3859   H
  -38.8859   49.6819    2.4674   S
    6.2913  -45.0591  -29.4923   O
   39.1941   20.9795  -10.0593   N
   17.0999   10.3563   -3.4519   H
    4.6438  -34.3698  -21.7585   H
  -13.4055  -25.5391   37.2857   C
  -45.9199   10.2045   39.3363   S
  -21.8855  -12.8613  -12.9114   C
   45.7257  -18.8886   12.4546   N
   43.1556  -13.7943   21.7102   H
   49.0179  -40.9983   47.4173   H
   43.4907   17.2135  -49.2957   H
   -4.7292   -0.6643   34.0965   C
  -25.0542   43.7299  -17.8240   H
   12.3684   15.1248   45.3158   S
   36.7785   39.9744  -23.2117   N
   13.4468   46.3753   34.5065   O
   27.8302   -7.0208   16.0180   H
   16.8778   25.1368  -13.1371   C
   -5.4873   -9.5985    2.5222   S
   11.1274  -35.1795  -20.1096   O
  -31.4165   41.7107   29.7917   S
  -25.8373  -23.2460    2.7498   S
  -31.2287   44.4859   42.2392   S
   -4.7106    9.8193  -18.2800   O
   40.0235  -49.3330   34.8249   O
  -15.0020  -10.3210   45.7492   N
    2.9600  -33.0022    5.8807   H
   18.3846  -16.3475   39.4782   S
   12.8186  -30.9623  -36.8000   N
  -15.5828    6.5571   31.2149   H
   21.4428   32.9976  -23.7942   N
   21.8545   28.7337   45.1219   H
   46.8034  -23.2592  -44.5246   C
  -44.3253   -6.3482    9.7961   N
    6.2310   45.1730  -46.7196   C
   21.3349   36.8240  -22.0520   C
   26.0395   15.3604   17.9139   N
   45.6640   -2.5992  -35.2888   C
   36.3668  -44.6553  -48.4094   O
  -12.1483  -18.0729    9.7620   H
  -31.8079    8.3812   -2.2252   C
    7.8578  -14.5049   13.6946   S
   37.4764  -29.3549  -32.3705   H
  -44.8346   31.5145  -45.9971   O
   43.2002  -13.5416  -20.5870   H
   25.7054  -25.0918   29.4572   C
   13.0903  -25.0778  -41.3746   C
  -34.0715   26.5048  -47.7241   C
  -36.9598  -29.8464   12.8738   S
  -12.5711  -21.0821   33.2324   C
  -45.6584   47.0869  -48.4999   N
   -2.3851   10.2481  -25.4740   S
   12.3280   26.0746  -39.5687   H
  -24.6209    3.8932  -35.8605   C
  -23.9999  -14.0930   39.7837   N
  -28.8545   -8.7419  -34.7229   N
  -17.7379  -11.7672  -38.6566   O
   48.0984    7.7193   -3.2934   O
  -34.7840   40.6827  -44.7429   S
   36.0177  -11.9204  -32.1914   O
   46.9670   34.2708  -39.1945   N
   17.8944   39.3221  -45.7178   O
   -6.8434  -48.5991   23.1942   N
    3.6785   19.5320   21.1438   O
  -39.7192   -6.3142   25.7048   N
   33.2361   40.3839  -44.2775   H
   31.6369   20.8737   35.5909   H
   -4.0987    2.6853   36.8915   S
   17.6870   34.6267  -10.6767   N
   -8.9116   27.2849   47.4008   H
   -8.4486  -16.2202  -23.3414   O
  -44.3516   45.8498   12.9913   H
   21.0766   49.7207   13.7358   N
  -36.7349   13.3907  -49.7899   N
  -10.5078   35.6076  -41.5981   C
   16.2202   49.3530   19.5145   N
   11.6464    1.0491    6.6513   H
   -7.9645   21.6146  -11.0055   O
  -26.5903  -15.7326   38.1844   H
M  END
$$$$
