Generated Ligand
Programmatically generated
Comment line
100  0  0  0  0  0            999 V2000
  -31.7396   23.4592   16.8465   C
   -5.0044   18.1504  -26.4470   H
   44.6757  -44.2474  -31.7658   C
   10.5169  -24.8781   45.4979   C
  -36.8458  -10.9802   42.8755   S
  -31.4597   30.7608   16.0215   C
   -3.8850   14.4537   15.4068   H
   28.0347   40.1237   35.5322   H
   16.7000  -32.8897  -23.1001   H
   40.0925   10.9068  -23.1819   C
   34.5924  -47.6405  -44.0989   S
   22.1511  -22.3490   29.1308   C
  -13.7165   44.7450  -21.3226   S
   19.7059  -29.2883   43.2227   H
  -18.8171   24.3483   48.1165   S
  -39.3795  -34.0729   43.1294   N
  -18.1304    2.6089  -15.9462   O
    8.1717    9.1240   44.8088   C
  -19.5626   -0.6770   37.6613   O
   -5.6636  -35.0635  -36.8626   H
    7.4564  -21.4712  -36.8051   N
  -43.3906   31.5057   11.0047   N
   31.3031   -4.0246   10.7970   O
  -40.5574   47.6661   28.2557   H
   47.1641   48.7586   -1.5542   O
   24.4139    6.1103  -48.7973   H
   10.2818   47.0466    9.5840   H
  -31.3624  -12.2408  -26.0816   C
   -0.4110  -10.1063   17.7259   S
   10.0858   -7.7425    8.4779   N
   22.8773  -33.1463  -15.0695   N
  -24.9321  -42.1906   13.7761   O
  -32.4307  -12.4807  -22.3494   C
  -46.9418   16.1652  -13.3631   O
    7.5355  -43.4857  -25.9657   H
   17.3337  -18.2514   18.7272   C
   17.1630   -2.5439  -29.9677   H
   30.8461    6.7996  -42.8957   O
  -17.6904  -26.4165  -46.5360   C
   -2.5596    4.7481  -48.5153   O
   16.0945    7.3512  -30.8868   C
   -3.0896   45.7019   44.5986   C
    0.7714   22.8541  -46.5902   H
   23.0144  -32.5650   28.4681   S
  -37.8557  -42.5448   -7.2793   C
   -9.1629    1.7074    0.6163   H
    2.0850  -14.8054  -40.6105   C
  -16.1301   14.6875   31.8015   N
   37.5466   10.7781  -36.5943   H
   25.5326   45.6765    5.6479   S
   13.7859   40.4473   20.7992   H
   -7.8441   27.0605    0.9695   C
   -5.7522   12.9115  -41.7209   N
  -42.5203    5.3093  -45.2626   N
   -0.2030  -36.9446   42.8723   O
   10.7295   38.0118   41.2278   N
    8.4723   44.8940   -9.2800   O
  -32.2729   26.5639  -22.8938   O
  -12.1238   -5.0897  -20.9645   N
   18.1593   39.2388    4.9342   H
   38.1425    0.1657   30.8398   O
  -17.6031  -49.4459  -39.5394   N
  -43.8920   18.5346  -33.4939   H
    2.8729  -11.7384  -20.0988   N
   -8.1473  -19.4731    8.7943   O
  -10.9467  -26.0039  -29.5047   H
  -31.5057   46.9670   11.5149   N
   14.8194   35.8624   -3.7919   S
  -28.0681   34.8532    3.2333   N
    4.7067   20.8850  -19.0867   N
   39.5227  -42.6833   24.0839   H
   10.9234  -31.5922  -28.6268   S
  -12.9798   -8.5983   30.9224   H
  -30.9660   -0.3354   39.3902   N
  -32.0956  -29.2754  -34.1265   S
   -1.3010    5.4103   36.8032   H
   21.2379  -14.7440   43.1769   N
   36.5471  -48.0157   20.2412   N
  -20.4688   -8.2465    0.8648   N
  -25.1733   35.3984   -2.6813   O
   -8.4824   18.4617   39.4494   H
  -23.9121   36.8104  -14.0323   C
   34.7449  -48.6422   21.0750   C
  -16.5055   25.5009   34.1217   C
  -31.1985   42.5300   29.2222   S
  -30.1670   34.8077   13.6089   S
  -38.8881   11.4859   26.7204   S
  -29.8773   -8.4028  -28.3716   S
  -33.4763  -17.8081   24.1553   S
  -27.5759  -29.3865   -2.2108   H
  -44.5708    5.8972   20.3547   N
   25.0010   -2.9237   19.2768   H
   43.1098  -28.4242  -44.0619   C
    9.7058   13.3114   24.4049   N
  -24.9838  -34.8186   42.7994   C
  -45.6280   35.7759  -25.6299   H
   31.5094  -35.2752   38.5257   C
  -25.0074   15.8010    1.4696   O
  -39.3278  -31.3222   11.1512   N
  -24.7625   12.6999  -24.3459   N
M  END
$$$$
