Generated Ligand
Programmatically generated
Comment line
100  0  0  0  0  0            999 V2000
   40.6842   15.6329  -19.7014   O
   -2.6037   45.8733  -13.9537   N
  -24.0656   49.8867   20.0104   N
  -40.0030  -44.2384   25.1583   S
   39.4563   39.8130   47.7581   O
   42.8485  -10.6378  -38.5765   N
  -18.7269   15.3487  -34.9503   H
   32.6879   25.0627  -12.6813   H
   -7.6855   20.3078   49.9569   H
   36.4584   -6.1571  -45.6017   H
   41.1441   40.1879  -39.1030   C
   11.1550  -10.5936    1.9259   O
  -42.1997   29.9542    2.4060   N
  -14.5897   28.9019  -40.1710   C
    8.4408   -7.2292   45.7013   H
    0.4580  -27.9782  -21.9573   N
  -29.9025   13.5237  -48.5413   C
  -28.8337  -11.5611  -19.5457   N
   34.5665   -3.1940  -46.5731   S
  -31.2016   30.0057   39.4271   H
    3.0710   -2.0101    5.2623   H
   49.3618   -4.4305    4.0342   O
  -45.2154  -28.4665   -2.6834   S
    5.6265  -21.0595   46.6394   N
  -45.6663   10.5624  -17.2644   S
   13.6274   13.5476  -20.9856   N
   49.7149   45.8599   12.8582   C
   16.6448   36.2003   -7.9050   O
   44.7511   46.6563   49.2508   O
  -15.6021   35.1844  -39.9197   H
    7.4532   16.3410  -16.7370   N
    6.3304   27.6609   18.0696   S
  -46.6634   22.8793  -22.8404   C
    7.0679   -2.6732   30.3153   S
   20.0791   17.9943   22.4130   S
   -5.2650  -45.4038  -27.9377   O
  -43.6753  -24.4965   39.0507   N
  -22.5114   33.7708  -34.0658   O
  -32.6341   29.7368   30.7718   N
  -32.5233  -17.8482   27.9046   S
   36.0035  -42.8583   42.6319   S
   -2.7205   -0.3449   -9.4645   S
  -22.3471    4.4911  -40.1339   O
  -21.1419  -24.4455   13.8580   H
  -34.9635   17.8279  -18.1537   O
   42.9551   36.1211  -25.4365   C
   -8.1752   46.0698   27.7194   N
   19.1790   11.9696  -35.5055   C
   31.0399  -41.6885   41.3253   H
   -4.4083    8.1347   -5.7644   O
   21.9012    5.6862  -45.2226   O
   16.3762    2.8435  -46.9267   O
   38.7905  -35.5682   47.7162   O
   30.6834   37.7466   17.8643   C
   45.2629  -32.8649   17.4816   C
  -36.5498   -5.2778  -22.1084   S
  -42.6706   12.5014    4.1068   O
  -43.5560   38.6028   17.2987   C
   38.4202   -5.6914   14.8574   N
  -25.3554   -6.1378  -29.5983   O
   10.4435    4.5575  -13.5260   O
  -15.0541  -46.3721  -19.5650   S
  -39.1876   44.2237   35.0819   H
   12.7449  -31.6190   32.2229   C
    0.5441  -28.9523   35.3156   S
  -37.6498   10.3352  -39.8758   N
    5.7189   17.5078  -45.9993   N
  -19.4595   10.9702  -21.7438   N
  -17.4327   -5.4096  -24.2572   N
  -24.9599   -9.2415   42.8466   H
   43.4217   12.8688   -6.9995   O
   37.0843   43.9696   16.1465   N
  -15.6035    1.0952   43.4958   S
    3.0230   24.2539  -38.3825   N
  -14.4882   17.8143  -45.1172   C
   34.7853  -25.7480   40.6607   O
  -42.1879  -42.9401  -23.9877   C
    5.8806  -31.4694  -36.3624   S
   23.8688  -27.2761   45.9467   H
   24.5144   14.9539   27.9232   C
   -3.6627  -10.3340  -33.8533   S
   13.4488   34.4483  -49.4180   C
   -5.8409   39.8973  -37.1421   N
  -46.5865  -33.1286    5.5448   O
  -39.6429   25.9207   33.3783   C
  -42.8234  -16.8801  -20.1719   O
   23.3893   40.7094   38.2535   N
    5.9782   -9.5483   21.1162   H
  -29.3888   -6.9727    7.1696   S
   20.5731   31.9577  -22.1422   O
   36.1546   12.5083   43.2828   S
   -9.4622   45.3864   35.5501   O
   10.3392   35.4101   24.2823   S
   35.1408  -48.7721  -26.7087   N
  -17.0557  -23.9364  -35.7642   N
  -41.3979  -47.9919    4.0810   S
   24.3271  -18.9015   17.1235   O
   48.9410    2.9687  -26.8840   C
   13.1432   11.9658  -28.0989   N
   44.4706  -11.6823   45.4475   O
M  END
$$$$
