Generated Ligand
Programmatically generated
Comment line
100  0  0  0  0  0            999 V2000
  -12.1362    4.6323    9.0590   N
   -4.1181   28.3922  -23.4773   C
  -36.8379   -5.2896   -0.2144   N
    2.6720  -47.2685   30.9845   O
   47.9405   -1.7558  -18.2634   H
  -35.8950    0.1026    1.2689   H
   29.5348  -21.1045  -29.3658   O
   25.2695   -3.2690  -41.2226   H
  -28.9872   25.2694   17.4685   H
  -25.8646  -39.8785   20.8341   C
   10.9973   47.2397   26.4956   C
   27.1493    3.0612  -35.0431   S
  -17.7030  -38.6586   48.8002   C
  -42.7395  -43.8508  -18.2775   H
   -1.0929  -38.9800   14.9813   H
   35.3385   33.1783   17.4608   N
    9.6115   44.0881   33.7353   O
  -48.5498   38.3651  -33.5738   N
   24.7383   31.1513  -33.9321   O
    7.3130    1.5361    8.2686   O
   20.5483  -10.0071  -26.7401   C
  -12.7868  -40.5831  -28.3529   O
   -4.4298   34.2441   22.0534   H
  -19.6106  -28.0462   38.0214   C
   11.9789  -17.3849   22.9452   S
  -34.4919   33.3155   47.0209   C
   39.9460  -39.7262   41.1306   C
  -24.2519  -29.9722    5.1246   O
    8.2966   26.2851   18.4485   O
  -38.7337  -45.2029   18.7400   N
   38.6540   13.2320   24.7156   O
   10.7956    0.0762   14.4038   N
  -45.7647   15.7676   -6.7613   N
  -14.0745   15.5835    5.2372   H
   11.8010  -13.8661   17.9892   C
  -33.8145  -13.6450  -18.2119   S
   37.3367  -41.5552  -42.8323   C
   11.9503   39.0427    0.8027   H
  -49.6692   24.7952  -37.9504   O
  -35.1008   47.1136   31.2744   O
   -6.7229   31.5999    2.1535   S
  -12.5113  -25.5495  -43.5145   S
   15.8413   22.3116   -2.8237   H
    8.2282    9.6611   -6.4535   C
  -33.2146  -41.5616   10.7554   C
   -1.3607   21.9463  -48.0526   H
  -36.7187   22.8119   10.6658   N
  -12.0115  -47.9684  -27.4849   H
    2.2118  -15.3719  -43.1718   C
   49.5039   40.6613   14.4026   C
  -40.7522  -10.5914   44.2857   O
   17.7854  -45.2557   24.7006   H
    6.7143    8.5996    9.6372   H
   49.9402   21.9827   -8.9207   S
   -4.2883  -45.3111   -2.5327   C
   21.2214   17.4699   -8.5339   H
  -32.0662  -19.6804  -17.4697   C
   22.7198   23.4903  -34.2254   S
  -46.6981   47.1390  -46.0811   N
  -15.3596  -34.4903  -16.6997   H
   32.5218   -7.5610   33.4966   H
   12.2259  -30.2939   49.5368   S
   39.5304  -11.7054    0.8050   S
  -36.4214  -34.3332    8.2062   N
   13.4754  -28.0041  -37.8881   C
   25.0376  -11.8195   47.7255   O
  -36.2833   21.3858   40.1735   O
    5.2540   -3.6323    7.5206   O
  -43.6800   38.7291   41.2149   C
   47.8284   47.9251  -11.1680   O
  -29.5267  -18.2948   14.4314   S
   29.0464   44.8924  -44.4967   O
  -29.1110   27.9889   30.8308   N
  -17.3246   12.6397  -30.4453   O
  -32.7292  -31.4982   -1.9421   S
   -0.6012  -35.8242   36.8369   H
   15.7025  -18.0854  -37.1816   O
  -29.4698  -40.8304   -4.2147   H
  -14.3342  -22.7915   23.9155   N
  -29.2115    1.5045  -12.4156   N
   21.3562   39.1085  -13.3067   H
  -27.4236  -30.2227  -43.9140   S
  -42.1057   25.9320    1.9462   C
  -18.4854  -21.5113   29.7964   O
  -44.2315   48.3432  -40.2180   N
   27.6627  -12.3947   24.4141   N
    0.1947   -5.2686  -16.9986   N
   44.3225    0.5129   -8.1040   O
  -11.1624   36.4605   10.7417   N
  -47.5836  -27.7209  -37.8700   O
   30.3678   41.4351  -48.6753   O
   35.5365  -31.4914   12.7174   O
   31.4491   35.0774   11.6122   N
  -13.1654   22.0323  -19.6481   N
   47.5934  -47.0850  -21.6338   S
   11.5704    5.5180   13.0170   S
   23.7916   48.7962   33.6544   S
   19.6774  -13.8549  -27.1060   S
  -35.1295   49.5363   20.4280   O
   26.7972   25.9408   -5.7876   N
M  END
$$$$
