Generated Ligand
Programmatically generated
Comment line
100  0  0  0  0  0            999 V2000
   20.4561  -11.1510  -22.5734   N
  -46.4117  -13.2179  -19.5033   O
  -48.7474   48.4115   24.6550   O
   -4.8053  -29.7527   32.4902   C
  -25.4176   -1.1562  -32.3283   H
  -39.7769  -13.9075  -34.6583   H
  -11.3711   25.4497  -49.0200   H
   31.1684    2.6208   -2.9221   O
  -30.5005   43.4055   44.0327   N
  -36.8837   30.2033   30.6612   O
   46.4320   20.8169  -36.4664   O
  -27.4341   37.2609    6.0789   O
  -20.9810   26.5744  -15.7767   O
    9.4790  -33.9869   49.1983   N
  -19.4013    3.2816  -10.1456   N
  -30.1416   -8.3663    4.9125   N
   30.1890   14.3059   33.7474   H
  -35.4179   36.4872    8.6505   H
    4.7304   31.2240  -31.2138   H
    4.8628  -12.5708  -13.9920   H
  -25.8250   14.0337   43.2085   N
   10.3530   11.9596  -37.7001   H
  -44.6921  -18.5105   28.7022   S
   -9.1650  -36.7552  -21.9515   H
    4.5146  -44.8165  -27.6134   N
  -27.1874  -33.1868  -45.2275   O
   13.7017  -29.9424  -49.1418   C
  -11.7331   48.1325  -32.1753   O
  -15.0718   29.2523    6.4885   H
  -32.6324   13.7904  -11.1596   N
    4.2361   -3.2129   18.5023   O
   31.6001   -4.1273    2.1846   C
   26.5150  -24.3140   45.1716   N
  -36.2026   22.5625   29.7312   C
   36.8626  -17.9497  -38.4650   S
  -46.0554   -4.5728   11.2413   N
   -6.8684  -45.3631   -3.4854   H
    1.4621   -2.0835  -12.8562   H
   -1.0678   47.9682   19.1376   S
   25.9009  -24.0558   -0.7423   C
   22.2157  -48.8655   26.4786   N
   49.6351   10.2707  -15.3607   S
  -40.4874   35.4288  -27.8175   N
  -34.4258   21.4785  -45.5865   S
   45.7830  -47.7546   49.4582   H
    9.6068    5.4451  -10.2850   O
  -48.6082    2.5287   33.4877   C
   -2.8478   29.1067    7.0250   C
   27.3433    3.9966   38.3740   S
   -9.6399  -30.6208  -14.2592   N
    3.8778   42.6690   30.5289   S
   35.3530  -43.2403   40.6057   H
  -37.3647   44.6628   28.9512   O
   39.0855  -37.4486   12.9410   S
   29.4194    3.5416   25.2201   S
   44.5366   49.3649   21.5414   N
  -19.5074   48.8196  -29.1257   H
   40.0793    0.7939  -48.0223   N
  -27.1004  -43.2997   -7.5387   H
   37.8919  -15.2769  -39.7587   N
   18.6580   47.5944   28.6991   C
   41.6382  -11.2299   38.2633   S
  -25.6872  -14.9014  -27.7715   O
   20.7529   23.0209  -44.8924   H
   36.1610    5.7162   -3.5259   N
  -28.5509  -21.7685   12.0585   S
   -3.7928   16.6126  -39.8135   S
  -40.5243  -11.1970   33.3437   H
   18.5005   28.6953   29.5299   N
   41.4161   -9.2021  -26.1045   O
  -30.0349   -5.0199   -3.6809   S
   16.7455   34.7059   13.4694   O
  -34.3426    1.5599   30.1156   C
    4.8759   11.1720  -16.9833   S
   28.7639  -24.5868   32.3370   N
  -22.6871   33.6281   43.3042   H
   45.5352   13.0574  -41.6566   H
   30.9838   43.4271  -15.2062   C
   20.2999    5.0577   10.9616   H
   45.5921    5.6972  -24.5042   O
    8.7521  -25.6959  -33.5436   O
  -40.5811   37.4497   41.8044   C
  -41.2700   37.0272  -24.7616   N
   16.2136  -10.9988   43.6310   O
  -10.3876  -14.1650  -14.1003   S
   -1.8891  -40.3635    7.0819   O
  -12.3734  -31.0971   40.2692   N
   41.9788  -45.9777   -0.6013   H
   38.9874    1.1807  -25.0048   S
   19.5200   37.1795   14.7016   N
   38.2853  -23.2575   49.9103   S
   15.1928  -33.7430    9.5847   C
   24.2293   21.9416  -14.1187   S
  -10.6729  -30.9780  -12.5656   H
  -23.2199   27.8739    1.9313   N
  -18.0944  -30.7878   47.9351   C
   16.6040  -30.7861   48.9600   N
   16.2508   -0.4331   -1.6581   S
   33.9581   41.1973   -5.4707   O
  -24.1393   17.9228   -6.3320   C
M  END
$$$$
