Generated Ligand
Programmatically generated
Comment line
100  0  0  0  0  0            999 V2000
    8.1444  -11.5538   -7.5348   H
   45.8296    0.2690  -13.0694   S
    7.2572  -24.0796   -4.3376   C
   15.5280  -19.6190  -42.3477   N
  -46.5912   45.4703  -30.0692   N
  -20.4431   33.9861   -4.0406   H
   32.3788  -31.8800   31.3406   H
    9.7207   26.3903   24.1788   H
   15.6100   39.9183   49.5843   N
  -26.2353    7.0744   11.0998   H
  -16.2655    0.1834   -9.1173   O
   39.2804  -12.5971   29.6848   N
  -16.1715  -10.1887  -21.9130   S
    6.4348  -19.0242   28.8929   S
   48.3276   21.0706   -1.1398   C
  -31.7925   16.3169  -48.3256   C
  -40.9093   26.4435  -14.9327   N
  -30.5056   -0.1197  -33.8834   N
    0.1622  -28.7571  -48.6729   O
   43.0347  -46.0914   10.1635   O
   41.6845   10.6785  -13.7206   C
  -39.7972   16.5430   -0.6352   H
  -29.4421  -12.9145  -19.8109   O
   18.0029  -48.7853  -32.4817   S
  -36.0760    9.2611   26.5255   H
   34.9132   23.1187    3.0386   S
   19.1220   20.5346   -7.4275   S
  -23.5177   -8.5377  -44.5048   H
   27.5356  -21.8125  -15.7601   H
   29.4147  -46.4759  -19.8416   H
  -25.5346    6.5219    0.7605   H
  -30.2394    8.6055   23.6072   C
  -21.3687  -36.5521  -49.2704   S
  -17.0939   43.9464   -5.3630   S
   33.6311  -40.8120  -22.7113   H
   10.0524   18.5456   26.4128   N
    9.2622  -38.6967    1.3214   H
   48.7739  -32.1028  -39.7124   H
   28.8843   34.4565    8.8316   H
  -20.2551  -25.9920   39.0726   C
  -46.4347    2.5918  -36.1692   N
    5.7404  -10.3829  -31.3931   S
   10.8181   34.2903  -36.1931   N
  -48.2882    5.7264    3.0722   O
    3.4530  -18.7797   11.8067   H
    6.6114  -16.1251   33.1735   S
  -35.8874   37.9471   26.0150   C
   -4.2275  -17.2802  -42.2242   H
    7.9811  -38.7213    3.8711   S
   22.0373   23.9541  -30.4573   N
    4.8070  -21.2104    3.7216   S
   14.8648   13.1435   49.7353   O
   48.9183  -24.3455   18.8537   H
  -14.9339   -7.9946   -6.6692   N
   18.5441  -47.5081   -6.0865   N
  -36.4453   -6.2383   26.8354   H
   32.6512  -45.5330   11.5063   C
   15.9821  -30.2328   44.5963   S
   29.3460  -18.6006  -47.4825   C
   28.5425   37.0538   31.8196   N
   38.6513  -13.2706  -46.0398   O
  -34.7113  -31.7808  -45.1013   C
  -26.1595   49.3189   -9.7091   C
   48.6818  -46.1856  -26.2047   H
  -47.8345  -48.0663  -26.4602   O
   31.2555  -13.6914   29.3579   H
   23.2123  -46.9204   49.3433   N
   45.8549   26.7831   36.0198   C
   26.6553  -27.7769   45.6704   H
   29.0173   39.6199  -39.0507   O
   37.8211  -40.9497  -41.2317   S
    9.6762   48.2808   16.3395   C
    4.4043    9.7145   18.2371   H
   -0.6537    3.2975   48.1804   C
   35.0400   44.6122  -35.8999   N
  -31.2797  -31.1924   33.9623   O
    4.3316   39.7669   -9.9371   C
  -12.7012   29.1523   38.5144   C
   -5.8177  -24.4327  -46.5020   S
  -31.6958   21.4373   48.8886   C
    9.2386    8.7903  -32.8652   H
    8.9549   31.6517   -2.4892   O
   -7.7231  -47.7573   26.6819   O
   26.3747  -21.2949   -5.3871   O
  -35.8913   -7.8638  -10.5332   O
  -20.9921   12.8163  -15.0621   S
  -16.4202  -41.7650    1.4710   C
  -15.5067   23.4742  -44.1157   H
  -13.3698   27.2060   49.1443   N
   43.6864  -13.2241   27.8216   O
  -42.9634  -47.1716   -7.5543   N
   19.2324   18.6693   27.3122   H
   41.5334   48.5059  -35.9724   C
   -6.7389   11.5528   48.1512   N
   24.9505   33.5053  -10.5690   N
   34.3351  -42.6821   -8.4376   S
   28.1708   47.8267    6.7830   C
   12.4690   36.6840   16.9637   S
   18.0621   -8.5848  -13.0761   S
  -35.1354  -19.4191   46.3919   N
M  END
$$$$
