Generated Ligand
Programmatically generated
Comment line
100  0  0  0  0  0            999 V2000
   -7.2422  -46.8548  -35.0593   O
  -33.3350  -11.6135   11.7582   S
    5.7370   33.3326   44.0890   C
    1.6512   33.9437   46.2293   S
  -25.7885   48.2379   38.4027   O
   12.1930  -27.9889   44.8283   O
   46.6748  -37.5681  -11.2376   N
   42.5482   35.7366   36.2334   H
  -23.2785   -5.5449   11.1178   C
   21.4933  -30.7822   32.7879   H
   -7.5090  -31.1392   15.8620   S
   32.4308    9.5784  -11.8650   O
   36.1927   42.2979    9.3805   O
   29.1075   40.3576  -27.7401   H
   46.1544   39.9669   34.5127   O
   -7.6608  -36.0576    4.1422   H
  -14.7986   28.3453   45.9228   H
  -24.0430  -49.0780  -34.0092   N
   -0.0950   11.9806   34.4803   N
   21.0899  -35.5084  -17.8102   H
   47.3017   15.0409   12.7721   O
   26.8523   15.0516    3.2463   N
  -12.5535   44.4134  -25.4575   O
   -2.3741   37.6829   -8.3228   O
   32.4063   -2.2825    3.4346   C
   18.1635   -5.5268    5.5383   N
  -10.0294   -9.2984   16.4788   O
   -4.3002  -23.7065    2.1868   C
   48.0898  -31.7848   41.2963   H
  -31.8659   36.5772  -22.0785   O
  -18.2207  -38.8115   30.2338   S
   30.8221   -0.4886    8.9190   N
   41.4116  -15.6677   37.0439   O
   32.6887  -47.4549  -14.3417   S
    1.2482   29.3824   49.9304   O
   46.7645  -26.4742   37.7866   S
   28.1803   10.3848  -26.2776   H
   14.1771  -40.4901  -38.8844   H
   -2.5111   -1.1162   39.3507   N
   31.2141   22.4927    2.3530   O
   15.6742  -18.7314   45.2670   S
   24.0590   36.5581   33.5696   N
  -46.0081   14.6725    1.3536   N
   30.9327  -15.8759  -42.1733   S
   41.8967   21.6697   -9.1274   C
   29.8697   -6.6539  -28.7189   N
   46.6965   20.4345   23.6488   H
  -39.4528  -33.8141   44.2085   O
    6.9199   31.6721   11.1877   O
    9.4749  -46.5341   35.0679   O
    1.6362  -47.7111   26.5596   N
  -42.7681  -39.2916   19.7432   H
  -16.8048   28.2309   18.0924   N
   34.2534  -46.3158   40.4239   N
    7.0642   -6.6503   32.8114   O
    5.2442  -15.1510    2.6407   N
  -22.6072   11.5015  -45.3510   O
   13.7961  -37.6015  -44.1782   N
  -34.8848   32.8193  -16.6117   N
    9.2510    1.6146  -18.0369   O
   49.1525   29.4384   -1.8607   H
   29.9652  -38.6295   44.4404   C
   -9.5049    1.7614   41.9042   N
   -1.2197    6.9015  -44.9793   O
   36.4181   31.3454   31.0515   H
   40.8526   -0.9183  -35.3819   O
   -7.7975   23.3363  -39.8658   S
  -29.6510   29.2197   -5.3031   S
  -14.4960   -7.5775  -18.9326   N
  -47.2451   11.3402   37.1867   S
   -6.9255   41.6690   33.4217   N
  -44.2044  -49.7430  -36.2633   N
  -44.7874   25.3989   -3.0212   N
  -45.5886   35.6987  -20.9515   N
    0.8551  -14.3777  -34.7172   H
   22.5328  -38.8605  -38.7728   H
  -26.2463   49.9803    6.5478   O
  -10.3741  -23.1333   23.8373   S
  -24.9381   24.1124   30.8060   S
   -1.2007  -12.9449    0.9892   N
    5.9470    8.3729  -24.5793   S
  -24.5688  -13.7685   12.3133   O
  -47.3625  -16.4602  -14.2489   C
  -46.8868   -4.8446   -9.5446   C
  -34.6598   34.5799    6.2222   H
  -14.5222  -12.5338  -32.4423   N
   -1.0185   45.7007    9.9185   O
    9.5827  -24.4500  -43.6613   S
   40.7796    5.4333   38.9954   O
   -1.3092  -21.0458  -32.0506   O
   20.6826   -7.0787  -24.6868   C
   37.3262  -15.9739   40.3669   C
  -22.2250  -22.0798   26.4203   H
    2.4750   18.7182  -47.9018   S
  -49.2131   20.0004  -12.4705   S
   -9.1426  -30.6761   24.2768   S
  -13.8959   44.8747  -33.9730   S
   43.9658  -14.3267   20.0100   S
   29.9237   31.1566    6.0698   O
  -13.0060   -7.5335  -42.0390   O
M  END
$$$$
