Generated Ligand
Programmatically generated
Comment line
100  0  0  0  0  0            999 V2000
  -37.7673   -8.6533    4.3400   N
   38.2810    8.7008   30.7829   H
   -1.9772  -41.9695  -30.3218   N
    2.3196   -8.1018  -39.9780   N
   28.3247    6.3298  -36.1586   N
  -39.7620   15.4239   42.3771   C
   -7.0020  -34.3391  -42.5071   S
   -4.6470  -19.0941   25.3337   O
  -31.3981   48.7689  -43.9593   O
   38.2926   -1.0863   24.1369   O
   45.5303    7.0230    7.1342   S
  -42.8688   13.5819  -41.9804   C
   19.0174  -29.0185   13.0829   O
   16.1048   46.2760   -2.0821   N
   21.0297   22.5807   -9.8731   O
   19.4806    8.7356   22.8754   N
  -25.0379   20.0418  -26.3034   C
  -14.3511  -14.5280  -47.9800   H
   11.0310  -24.4564    7.4201   C
   -0.6197   -7.2447  -42.1264   H
   45.3389  -19.5744   29.7673   C
   39.4639  -21.3815   16.7543   H
   42.5162   29.9916   49.2799   H
   25.5409  -28.0876    4.4658   H
  -17.8277   -1.8097  -21.1357   H
   25.1654  -30.3022   48.2427   C
  -29.7255  -13.2992  -20.8212   C
    2.4099   -6.5888  -32.1989   N
  -35.8678   40.5603   20.7951   S
   19.8191  -41.2760  -40.1515   H
   22.6135   40.8507   28.8425   S
  -45.4844  -22.0004   34.0082   S
   35.2871    2.8656   18.3063   S
   19.1914  -37.9883   -1.0524   N
   27.7473   31.0733  -37.8176   H
    1.7346  -29.3926   10.5916   N
   12.7826  -10.1680   -1.4829   S
   29.4610  -23.5818   32.2508   O
   49.9024  -48.4518  -33.6658   C
  -23.3788  -22.0134   35.8957   H
    3.7759    3.5459   49.4030   H
   47.4016   19.8965  -35.1352   N
  -41.0735  -27.6027  -48.0096   H
  -38.4365   -5.6538  -29.8402   C
   34.3894  -18.4880   37.5508   H
   41.7959  -35.1662  -28.1878   N
   12.9208   48.1182   49.3474   H
  -46.6319  -15.0676   42.4524   H
   46.4868   -2.5356   -9.5507   S
   10.6064  -40.3674   16.2604   C
   32.8041  -25.2535   -4.3014   H
  -44.8207   41.5700   38.0919   O
  -48.5248   24.7129  -43.1660   S
  -42.5941   13.1616   -2.5945   N
    7.3198   13.3478  -41.4620   S
   -6.3532   -8.3772    1.8984   S
   10.9470   15.5019  -42.4202   C
   -2.1538   47.3551  -22.1984   S
    5.0594  -15.2271   43.0992   O
   -9.6199   36.1938  -11.9044   S
   47.6626   45.3919   26.8952   C
   18.1807   22.2414   19.5895   N
  -30.1135   37.7155  -47.6843   O
   43.4237   32.7098   -5.6929   O
   12.3337  -36.7117    7.2585   S
  -32.8293   41.9366   34.0302   O
    5.3523    6.1623   29.4296   N
    7.4362  -32.4720  -25.1778   N
   35.6069  -34.4731   17.9434   O
    7.5027   10.8234  -46.6329   N
  -48.1224   49.3499   21.5951   N
  -37.8424   -7.7952   16.3456   C
   13.8290  -32.8878  -28.9897   O
  -40.5938   44.3158   44.3239   S
  -32.0789   48.8550   27.8324   O
  -37.6091  -23.6238   -6.4027   H
   12.2458   25.1291  -27.5906   O
  -36.0926  -23.0334  -48.3015   S
   16.5050  -37.9713  -11.5265   H
   45.9681   38.5783   31.8984   N
  -15.6662   24.6925   -4.6002   S
  -15.0809  -21.0710  -28.1738   N
  -30.9833  -25.0484    3.2335   S
  -12.6176  -11.4686  -31.6097   H
  -15.2690    5.5836   43.9817   S
   26.8054   45.2409    1.9955   C
  -17.1172   47.9675   37.6899   C
  -20.9331   47.8622  -32.8339   N
  -29.5054   34.2989   -1.5634   S
  -11.3896  -14.5493   14.4704   O
   29.8406  -46.0246  -41.9609   H
   33.2946   25.2943   45.6717   S
   -1.5757   43.2599   -8.7305   N
   20.2143   -6.1123  -27.6208   C
  -46.6149   38.9860   36.7582   N
   -4.9819   20.1133   40.7600   H
  -29.7888  -44.9718  -30.1267   S
   15.8977   32.6525   28.8731   H
  -36.9938  -32.7469    2.8114   S
    5.9486  -25.4910   42.7940   H
M  END
$$$$
