Generated Ligand
Programmatically generated
Comment line
100  0  0  0  0  0            999 V2000
   14.2215   22.2815  -32.8592   O
  -47.3537   24.9334  -11.1130   C
   22.9494   16.9130   -8.1767   H
   29.1627  -25.0999  -36.3475   O
   40.4665   18.1427   10.3797   C
   35.7377   42.1913  -20.1769   N
   39.4759  -35.9846    5.2538   S
   45.3663  -10.2263   -8.9705   C
  -39.4732   42.9691   -3.5067   C
   44.8031   22.5493   -6.3161   N
  -39.0272    4.0211    0.6344   S
   38.7213    8.7122  -43.1511   N
   -0.9212  -47.5662    2.7091   O
  -31.2250  -11.1232    5.8435   N
  -49.0371    9.1027   13.4506   O
   38.5961   39.5055  -35.9086   H
   19.8270  -11.2480  -36.4627   H
  -24.7775   -6.9336  -44.7243   H
   33.5492   41.5690    3.1424   O
  -28.3883    0.0827    8.8785   C
  -34.7738    9.4662   26.4238   C
   42.1508    2.1747  -49.1134   C
   15.1147   -2.1177   28.6512   H
  -42.9784  -33.6127   44.3046   S
   13.5675  -30.4845   44.0716   C
  -41.9266  -19.2653  -14.9941   S
  -30.1122  -35.7490  -46.1845   N
  -32.6334  -20.1716   39.0974   N
  -26.3361  -42.5074   33.6078   N
   40.1195   15.1794   16.9312   O
   12.7463  -27.2376   22.1524   S
   44.0192  -47.2822   -6.6574   O
  -14.6790  -21.5160  -33.9710   O
  -42.7622  -22.2919   15.4489   S
   48.4875  -27.5626    9.0547   O
   -0.3314   34.3665   39.5124   O
  -30.3958   47.6408   47.0650   H
  -27.8114   40.0529   21.4746   S
  -29.1316  -41.2917   36.9525   C
  -20.3443  -20.3851   31.4597   S
  -21.4495   18.8133  -12.5884   O
  -37.4840   13.0677    7.0585   O
  -25.4366   -0.6168  -30.6413   C
   20.5629    2.9992  -41.6831   H
   25.0065  -39.7363  -28.9858   S
   13.3507   47.5816   39.6094   C
  -48.4433  -25.4056   36.4212   S
  -12.7558  -27.4408  -43.3586   S
  -38.6340   15.0992   17.0992   O
  -37.3507   44.4816  -43.3930   H
   23.7632  -39.9280  -14.7721   S
  -37.3093  -16.5322   26.3657   C
  -12.8494  -16.1735    6.1712   H
  -42.5927   41.2373  -13.9470   C
   -6.5193  -43.4739  -42.6941   O
   15.6142   41.5819   12.0479   N
    8.0004   31.5335   10.2788   H
   25.1689  -11.7303    2.8796   H
   41.7380   25.0499  -49.1455   N
  -38.8011   -1.8106  -15.9043   O
    0.6765  -20.9878  -34.4656   O
   32.4143  -30.5344   20.6328   H
    8.9768  -19.3439   29.8172   C
   23.0914   23.9003   -3.1135   O
   -2.7098  -33.2326   15.1343   N
   46.1525  -22.5771  -46.8753   H
  -42.1964  -23.8139  -47.8087   S
   31.1102  -12.8422  -23.9045   H
   23.8899  -34.6366   -6.1438   O
   34.9917   11.9889    6.0475   O
   31.1859  -12.7771    4.4721   S
   -4.2853  -16.7330   44.7429   S
  -35.2325   14.1310  -18.5546   S
  -12.8026  -48.9168   46.8069   H
   49.7564   45.4476  -41.6938   H
  -48.4541   22.8411   47.1164   N
  -49.5061   24.4192  -48.3563   H
   34.4185   -3.9688   29.2855   S
   11.8490    6.4704  -38.0803   H
   43.0868  -26.2488   29.1355   O
   21.1337  -36.0182  -13.7038   O
   43.5798    4.0923   16.8946   C
    6.1812  -24.5307   32.3433   N
   26.0132  -33.5642   34.9272   S
  -22.9179  -45.2859   41.4164   H
   11.8113    2.0338   -3.2291   C
  -46.7096   28.2498  -45.7534   S
   31.0843    7.7028   11.7487   S
  -40.2265  -42.9664   11.4182   H
   -0.5297   25.8361  -17.9010   O
  -47.9982  -47.0840  -15.1834   O
   36.6224  -26.6597   -7.0936   H
   10.2017  -19.5782   29.9808   S
  -11.1972  -23.3748   21.1404   H
   29.6228    6.6923   43.2705   O
   40.0241   30.1764  -25.9907   S
  -27.6898   -5.4195   31.9556   N
    6.0404  -34.6655  -11.5503   C
    0.9615   34.0586   21.1279   O
  -31.5519   -3.5817    4.2247   S
M  END
$$$$
