Generated Ligand
Programmatically generated
Comment line
100  0  0  0  0  0            999 V2000
  -49.0883  -31.1970   -1.9127   H
  -29.8238  -22.8363   38.4227   H
  -22.9522   -5.9003   31.8860   O
   39.0964   46.8807   19.5493   S
  -43.8372   19.7498   32.6702   O
   14.0155   23.0641  -41.2018   H
  -26.6462  -34.2721  -20.1629   O
   25.4133   32.6665  -13.4093   N
  -34.7634  -32.0794   -5.0184   N
  -23.6503  -48.2542    6.2191   N
  -48.3461   14.5616  -36.3352   O
   -5.0389   26.5788  -45.1128   C
   32.7649   33.5756   11.6532   N
   11.6883    3.4616  -22.0294   C
   15.7448   26.4564   47.9756   H
   -9.8380  -13.7603   48.8185   N
    3.6629  -16.8669   47.4916   H
    2.6205   48.6728   -5.5837   N
   23.4672   18.2741   48.5599   C
  -35.6394  -13.2872  -32.4205   H
   49.1311   46.5873   16.4363   S
  -32.9251  -10.6521  -25.1413   N
   45.2399   20.0254  -16.5410   C
    4.6753    2.0423    7.7252   S
  -43.7527    2.2210  -11.3122   H
  -29.4373  -38.9507  -26.8059   C
   25.5814  -42.5905   39.2243   S
   33.0766   26.7852  -46.5126   N
   27.8314   37.1996  -25.3849   O
   -7.3859  -19.2485   25.2421   O
   14.1483  -48.6482  -30.0205   O
  -44.7695   10.5645   -9.0673   H
  -30.3167    5.5159  -41.9319   S
  -12.0100    5.1911  -31.2946   N
   12.6150  -27.7935   32.6295   C
   17.5132    8.4031  -38.0934   N
  -15.5191   43.3183   30.3467   S
   -5.4798  -49.7665   37.8610   O
  -28.0812  -34.9021  -47.2940   C
  -10.5357  -16.9006  -14.4197   N
   21.0730   45.5908   47.4346   S
    1.5832  -30.0183   -6.9330   S
    2.8077  -26.1674    1.2603   O
  -45.6685  -15.0092    8.0765   N
   -6.1104  -17.3686    8.0687   S
   14.0382   23.5370    6.9792   N
  -29.4993  -34.9165   42.8685   O
   49.7581    0.2141  -13.8637   C
  -13.0585  -12.5974  -21.6987   C
  -39.5392   22.2019   -7.7222   C
  -27.7583   16.0541  -15.9642   H
  -16.5131   -0.4303   -4.1204   O
  -30.0307    7.2380    5.5913   O
  -34.7720  -18.6777   15.0742   H
  -39.0645   -3.2625  -29.1275   H
   30.0219  -10.5925   -7.2793   O
   -5.1421   25.4380   38.7535   N
  -13.0184   23.6682   21.6642   N
   18.9229  -16.1219   28.1947   N
   -2.3463  -45.4249   46.6045   C
    2.8848   -3.8756  -32.4601   N
   16.8003   27.0969  -32.1133   S
  -18.7411  -22.7969   34.0683   C
   -6.7018  -36.2460  -11.9107   N
   27.1759   21.6385   26.2712   S
   17.5623   24.5590   44.7938   S
  -28.4989   28.3468  -23.3702   S
   12.2072   48.8175  -39.4954   N
   30.9932   -5.6551   38.3125   H
  -41.0932  -21.8553   23.4781   C
  -31.9085  -15.8454   -2.9929   H
  -24.0332  -43.5474  -41.3175   S
   -4.5759   24.2851   38.2319   N
    7.1276   43.6202  -35.1462   S
  -39.2502  -37.8501   44.8422   H
    3.6328  -19.5744  -15.5753   H
  -15.8269  -26.7241   22.2376   N
  -31.9007  -25.7572   20.2643   N
  -16.5765   17.6802   -9.6021   O
  -10.6979   15.5603  -18.2061   C
  -49.0243  -45.3161  -45.8798   O
   33.8681   17.6295   -1.2656   H
   46.0191  -18.3109  -48.7383   N
    3.9440    1.4525   26.2873   N
   15.0336   -7.9105  -28.6661   O
    3.7505   13.2140  -32.9322   H
   -5.6961    9.5384   33.9627   H
   15.1945    6.5199  -19.3274   H
   43.6361  -37.5757   -0.1371   H
   39.0081    5.8251   12.0437   S
  -18.9810    6.7327   -4.6768   C
   11.1527    9.8905  -43.2267   C
  -11.1445  -22.4007   24.4346   H
  -22.1859    9.2684  -29.7257   N
   18.0562  -10.2493   -8.2062   O
  -21.7678   44.9544   19.2745   O
  -34.3782   34.1757   13.4902   O
  -45.4720  -23.9915   18.7534   C
  -39.0962   45.3606   47.5681   S
  -31.2637   -4.3417  -31.8092   H
M  END
$$$$
