Generated Ligand
Programmatically generated
Comment line
100  0  0  0  0  0            999 V2000
   -5.0250   17.7022  -19.6674   C
  -12.2235   49.4861  -15.6462   S
   -5.5123   46.5772   30.7794   S
   36.4759   33.5370  -40.0251   O
  -43.1378    3.7784  -40.8147   C
  -38.9914    7.4915  -28.1732   O
  -44.2062    3.8096    5.1599   S
   25.9792    2.1576  -22.1678   S
   34.0787   20.1685   41.7954   S
  -48.0377   -1.7061  -49.0937   N
    7.9515  -31.1207   49.7321   O
   34.1133   49.7148  -32.5366   O
   15.9190  -18.2560   -0.6672   N
   -2.9910   12.5069  -47.0523   O
  -48.6788   47.8428   39.1154   N
  -28.2616   43.5588  -33.0785   C
  -24.3461   -1.9602  -15.1188   H
   22.9676  -18.1639   14.8265   C
  -14.2400   39.8282    8.7280   N
    6.5520   24.2010   26.0908   S
  -46.4267   38.6863  -28.3580   S
  -30.8862  -25.6245   43.7603   C
  -10.7195  -11.0753   46.2433   N
   45.7604  -28.0945   25.1118   N
  -33.8412   33.0363  -23.5894   N
  -16.2256  -47.5171  -14.6959   C
    7.6331  -11.8825   39.8541   O
  -26.2490   38.4911  -11.5713   O
   14.4201  -12.5786   -7.4596   N
  -21.2000   10.7058   29.6567   H
   48.8468  -41.5164    0.9517   N
   10.8660    0.4092  -40.4585   O
    2.7506  -26.5949  -26.9087   H
    1.2948  -10.9259   17.8541   C
   -9.7713  -45.0703   48.7137   N
  -26.0383   16.0092  -39.2218   C
   -8.2734  -39.6452  -44.2827   O
  -15.2516   -4.9419   -4.8159   N
   24.4877  -42.4769  -38.8164   O
   15.4188   16.5860  -14.6025   H
   20.4810   -5.9231  -25.2977   C
   -4.1471    7.6349   22.7347   N
   32.5121   42.3771   29.4243   S
    8.5080  -46.4890  -18.0667   S
   14.6871  -40.8176   22.9081   S
  -31.2542   34.9785   22.4339   O
   -4.9356    8.9098  -29.2116   H
  -47.2816   47.9625   -7.1057   S
  -35.2963  -18.2940  -15.7665   S
   35.1339   15.6032  -16.9364   C
   -5.2123   34.3621    2.5898   H
   45.2071   20.5409  -33.7603   H
   13.3417   28.8640  -33.0538   S
   -7.2635  -34.1642   16.9321   H
   21.8014  -35.6088  -34.6236   S
  -21.8325    9.7773   34.3091   N
    2.1785  -33.4178  -36.5006   O
   -5.2042    0.1396  -48.2701   O
  -25.5495   18.7710  -45.2829   C
  -11.1310   17.5833   42.3242   N
  -13.8459   29.5997  -29.6177   H
  -18.9161   29.3249  -12.6703   N
   43.9967    1.4250  -23.2961   C
  -12.6157   15.1178    6.7990   H
  -38.0963   -1.5864   14.3384   S
   33.7165  -49.8693  -30.8523   H
  -33.7025   -7.9467   35.6864   C
   28.9225   17.1416   11.4440   C
   13.8507  -30.1837   28.5114   H
   42.8681   31.5307    2.6766   H
  -39.0748   -6.7924  -13.6472   H
  -10.9458  -40.3706   27.4642   C
   -9.0127   26.9151    7.4739   N
  -19.1231  -47.8556  -44.2899   S
   33.8226   -7.1372   -4.4162   C
   19.8215   25.8915    3.7650   N
   -6.0317  -38.5165  -48.3135   O
  -37.9271   -6.0671  -30.6445   H
  -15.8342  -14.3288   49.3321   O
  -43.0440   -0.1400   24.0379   N
   30.9342  -38.1316   43.9405   S
   33.2971   27.7161   44.2013   N
  -16.4845   37.3015   17.8877   N
   40.2672  -40.4420  -43.0145   H
   47.0354   33.0968    1.6930   H
   25.4057   15.0802  -11.2433   S
  -19.4027    6.4025   -7.7569   S
   -7.8424  -39.5954  -47.2793   C
  -34.3888   44.2362  -17.4471   C
   30.1445   26.6430  -30.6633   H
   23.9926   43.0381   10.1826   C
   16.9073   -0.7454   24.8437   N
  -41.2383  -13.4458   18.5432   S
   33.3504    2.7570  -36.3829   C
  -17.6044   36.1761  -27.1124   H
   19.3277  -20.0377   41.7484   S
   21.1020   35.8803    1.4302   O
    8.8945  -43.9305  -23.1095   S
   -0.4073  -27.1275  -16.2897   N
   -9.8391   39.7452   20.5705   N
M  END
$$$$
