Generated Ligand
Programmatically generated
Comment line
100  0  0  0  0  0            999 V2000
   -5.9474  -30.5842  -47.0538   C
  -42.2126  -13.7558  -48.3828   C
   -7.9266    8.1226  -10.0398   C
   46.8080   28.9300  -24.8018   N
    1.0913   22.9047  -24.1025   O
   24.1119   17.1893   26.3098   H
  -26.9431  -28.4575  -49.3904   S
   20.7190   47.0623   47.0796   O
   -7.7717  -38.6956  -47.9578   S
  -17.5897   28.7907   28.4651   N
    4.5068    7.3024   47.1563   H
  -29.4940   48.7064   12.2592   O
  -17.7022   -4.2517   -1.7569   C
   15.9996  -36.4939  -26.1295   S
  -26.0915  -32.8014    4.6199   N
  -46.2070   -2.9810  -38.4828   S
   -9.8066  -10.1646   26.6542   O
  -18.9006   -5.0669  -33.0844   S
  -14.6777   34.5428   15.5191   N
   -7.7788  -46.8688   29.2345   O
  -42.3678  -41.5957   16.3259   C
   18.3707   14.2898   31.0217   S
   25.9762  -40.1426   23.7535   O
   43.6868  -18.5133    8.6915   N
   40.8407   16.2308   -1.5885   O
   31.0951   -2.4234  -10.4154   O
   46.5418    8.2098   28.9878   H
   39.0243  -29.0895   -7.6487   N
  -49.9684   41.3143   15.2784   C
  -11.8771  -36.0062   -3.9826   H
  -30.4247    4.6421   -4.5959   H
  -38.6793   13.8002  -11.1832   S
   10.5351   -0.6764   -2.7591   H
   44.1012   29.4452  -39.3878   N
    6.6705   37.0287  -16.3414   S
    7.2854  -22.6636   -7.4203   O
   -7.3404  -39.0487   24.6952   N
   46.4910    2.5811   45.4138   H
  -42.7873   46.1557   12.3771   H
  -43.3902   18.3797   -7.6972   C
   -5.7594  -23.5125   49.1603   C
   34.2416   13.1121   37.5151   H
  -35.0275   25.2150   30.3246   S
   48.6156  -40.6233   46.3132   C
   15.6704  -21.3462   18.5167   O
   15.5712  -38.3116   21.2544   C
  -25.6588   -8.9648   11.7529   S
  -42.7392   13.4336   13.4754   N
   -5.1702  -21.7746  -13.2654   N
  -21.9324   -8.5436  -32.7811   H
  -26.7182   10.1069  -32.1199   S
  -35.1756   46.7156  -18.8120   C
  -29.9777   44.1260   49.3702   O
    1.8502   24.0434   -7.4693   C
   24.7112  -12.2858  -15.8199   O
  -39.3843   46.3737   35.0493   S
  -20.0511   41.3002   -9.0889   N
  -21.9574  -37.5871  -48.1573   S
   38.9872   14.6379   10.5170   O
   18.8967   36.2855  -34.7814   C
   -1.7110    0.1653    2.6615   S
   -1.3489   47.5975   47.0201   O
    4.7485   14.7771   10.1408   S
   -4.9510   12.7519   10.0203   S
   -4.3785  -46.2150  -25.5711   S
  -29.3400   37.1529   32.4583   C
  -12.2693   38.4198   11.8989   C
  -17.1173  -41.4119   28.3123   N
   15.3649    5.9690   28.3384   H
  -20.0701  -36.0223   39.5131   N
  -41.5014   -8.3996    9.7507   H
    1.8797    8.5154  -18.4530   N
   33.1987  -18.6129  -32.3839   S
   -0.9711  -24.2108   13.3812   O
   25.3157   40.0227   26.9043   O
  -19.0272   14.7053   29.6203   H
  -25.8027    7.5006    3.5667   O
    5.5450  -23.9242    8.7263   S
   -4.8842   -6.4100   26.3243   C
    2.1709   19.5904    2.3702   S
  -19.2572  -20.7929  -42.9882   H
   44.1770   32.0924  -26.0129   O
  -46.1047   -4.2799  -41.6887   C
   48.9279   48.4632  -45.8865   C
    5.7028  -41.4146  -13.5764   O
  -28.7992  -40.9818   32.9048   S
   43.2457  -16.1302  -49.2308   S
   -9.4456  -13.3175   19.3930   N
    5.5257   32.4114  -16.7479   H
   28.7778   49.5157   12.6139   S
  -30.8883  -39.7248  -45.5187   C
   34.5172   28.5071   -8.8823   C
    6.1343  -18.3661  -47.1864   C
  -38.3869   26.9003  -45.8104   O
   38.5729   21.9690   34.1956   O
   29.6312   -6.2442  -33.3086   C
  -38.8915   28.4681   -9.1991   N
  -33.3249   -8.0171   -0.0901   C
  -43.4438  -49.6766  -12.6254   C
    7.9418   47.9481  -49.6731   S
M  END
$$$$
