Generated Ligand
Programmatically generated
Comment line
100  0  0  0  0  0            999 V2000
  -35.0492  -34.0595  -49.9960   O
    8.1437   30.8072  -11.2484   O
    2.9255   11.2760  -31.0459   S
  -23.5100  -17.9936   17.3098   C
   13.1419  -13.5497   42.2763   N
   27.6363  -21.6316  -29.5471   H
  -40.5444  -15.6538  -35.4056   H
   20.7568  -21.2505  -46.8679   O
   -0.7820  -11.4005   30.1487   N
  -38.8622  -24.7499   11.4353   C
   19.3249  -34.1730  -12.7048   S
  -40.0796   31.5854  -34.9994   H
   11.0581  -20.8529   38.2380   S
  -11.4690   23.4213   41.2505   N
   17.3433   42.8555  -21.8811   N
   -8.9395   29.4918   42.2688   N
   -0.7431   40.9817   46.9417   C
  -32.4181   34.0651   40.9597   S
   31.0817   43.8393  -27.1526   S
   31.5197    0.7179   20.4993   S
   25.9640   20.6684   36.3975   O
  -25.5487   -4.4189   23.8117   C
   45.1917  -49.6738  -29.8098   N
   -9.3004  -11.6794  -10.9434   C
  -25.7189   44.1695   18.1871   C
  -13.4754    8.2547  -23.0243   C
  -46.2438   37.1273  -34.1828   S
  -19.3927  -38.8338   36.0123   H
  -42.0140  -11.9969    1.0968   H
   23.7853  -30.6901   21.8128   H
  -24.7072    6.6538   -9.0212   N
   36.4601  -21.2953  -12.6411   H
   22.7117   28.1870   -2.9985   C
   10.5097  -46.5251   -2.5203   H
  -25.8605   48.6298    7.4021   C
  -23.5424    8.8834   28.4416   O
  -45.7859   22.7868  -47.5372   S
   28.2416  -30.0056   31.6381   N
    1.1235  -29.6336   11.0281   S
   22.6598   20.6830  -29.5512   N
    1.3277  -20.0770  -31.8105   N
   11.8659  -41.1229   22.7548   S
   16.6238   -0.2222   37.8001   O
   -1.5931   46.8309  -10.3258   S
    5.3166  -27.2004  -29.0348   H
  -17.5356  -11.9581  -30.7873   N
   25.5569   25.8881   36.9857   H
  -24.6834   28.3556  -21.3971   N
  -23.0519   27.1893  -38.4199   N
    8.8614    7.5889  -29.3429   N
    5.7412    5.0020   44.4831   S
   41.2916   -3.9529   39.3130   N
   -4.4507  -34.1662    2.5610   O
   14.0300    4.1442    4.0767   H
  -26.6175  -38.2108  -46.8188   O
   43.8240   43.4413   43.5488   S
  -14.4588   13.3416   34.2367   H
  -29.5960   37.7911   36.9056   O
  -23.8552   -3.7636  -36.3222   C
    9.1185   45.0614  -18.6495   O
   -3.5376   21.0812   27.5660   C
   47.0497   20.4347   15.9193   H
   40.5423   -0.3338   11.4677   N
  -24.1828   -9.5020    3.8108   H
  -29.8171   43.2762   45.4476   S
  -39.0499   -1.6962   -5.4538   S
  -29.1019  -18.6221   29.4566   O
    7.4316    6.0917   23.0087   S
   31.1717    2.6136   41.4530   O
  -14.7757   -2.8874   32.0879   C
   35.6598  -16.5882  -45.8931   O
   29.5701   42.4397   15.6086   C
  -34.1260  -20.1980   37.0546   H
   10.9316   -9.5226   -2.3386   H
   32.8926   27.8198   -2.1917   H
  -49.0851    1.0105   28.8988   H
   28.4952    0.6850   30.4550   O
  -24.1917  -45.2549  -16.5635   N
   -0.7414   30.7494   46.7403   C
   22.3612  -26.2990  -35.0962   C
   26.7597  -37.1166  -42.6862   H
   29.7981  -37.1814   21.5871   S
  -22.6718  -19.6965  -19.5582   N
  -43.4908   19.8047   31.8847   C
   33.4266  -42.1592   28.2776   N
   23.3711  -48.7949   22.3681   O
   -0.3682  -21.5892  -14.2687   S
  -14.6441  -29.5098  -21.2252   S
  -49.1174  -43.2895  -34.4825   S
   18.3907  -32.5227  -49.8749   S
   34.3852   28.6945   -9.8773   N
   42.6866   29.8604   35.1845   S
   36.2457    2.2603  -17.2994   S
   -6.8887  -31.3762  -46.4888   H
   23.4745   25.1128  -13.7297   C
  -45.7482   27.8690   36.1777   C
  -43.1810   21.5115  -35.0135   H
   47.7872  -10.6469  -17.8578   O
  -21.8061  -46.7850   23.1776   N
    3.5396  -40.5571   24.5253   O
M  END
$$$$
