Generated Ligand
Programmatically generated
Comment line
100  0  0  0  0  0            999 V2000
   37.5493   25.0801  -25.1703   S
    4.4801   45.9434  -45.6535   H
   23.4809  -12.3393   24.2356   N
  -31.1189    9.9849   -5.1315   H
  -12.1039   15.5409   -4.0174   H
   14.0243  -41.2471   30.5982   N
  -16.5325    5.2446   37.6776   C
  -17.6260  -18.7714   46.8572   N
  -37.9331  -37.8115  -44.3127   C
  -28.8998   38.9246   -9.2555   S
    1.3880   18.4326  -48.5192   H
  -10.6632  -30.9104  -10.5043   O
   -5.1612    8.9398    2.9174   H
   35.6919    7.4910  -48.4903   C
   47.9794   33.8869  -16.7333   S
    3.9228  -36.0654   48.7269   S
  -30.9416   39.4935   -3.6134   H
   47.0891  -15.2306   29.2022   C
   31.2688    7.5637  -29.5004   N
  -20.0426   -4.5232  -10.7988   N
   23.1545  -46.4847  -34.7440   N
   27.7788   31.5333  -44.4868   O
   40.7399  -46.2076   24.4717   S
   48.1473  -44.0772  -44.0728   N
  -12.3741    2.0263   30.3708   O
   39.0650   37.4342   36.9133   C
   -5.7076   30.9074  -28.7794   C
   17.0293   44.7098  -21.9286   O
   -9.7309  -16.8418  -38.7518   C
  -20.9697  -33.3676  -14.1489   O
  -28.0994   34.0858  -13.2261   N
  -19.6147  -35.6359   13.5836   S
   48.9005   32.7644  -21.8665   C
   25.6061   20.0380   15.2089   O
  -25.2509  -41.6132   16.1859   N
  -33.4936  -47.1126   48.6936   S
   44.5415   -2.4280   -8.3574   C
   12.9219    4.4520   -9.7542   O
   13.2034   39.3922  -44.0408   H
   24.9875    0.3073  -20.0127   C
   45.1101  -46.5162  -46.1606   C
  -36.5259   -2.5298   35.2316   N
  -26.7962  -31.6985  -48.9811   C
    3.3737   -3.3570   -7.6158   C
  -32.1837  -43.5879   16.3795   H
   13.1801   43.9261  -13.7689   N
  -18.4548   -9.4986   -0.3472   N
  -30.4833   46.4867  -28.8102   O
    9.0964   -2.9553   27.8229   H
  -32.7048  -41.7554  -23.2765   N
  -28.4163    1.7071  -45.5008   N
   31.8413  -44.1194   18.0791   N
   14.3555   39.0678   23.5834   C
   47.9795   29.9654   -3.7562   O
  -47.2108  -38.2523  -43.3759   H
  -17.6838  -24.6701   32.3496   O
   34.9132   35.4999  -29.4350   H
  -39.7783   36.8268   22.7796   O
  -34.3262   20.7416  -27.6871   H
  -44.2482   28.4346  -14.1202   N
  -32.8465  -43.0743  -15.6952   H
    3.2865  -27.9338   12.8350   O
  -40.5968   42.3337   42.6637   N
    9.9130    3.7595   38.8391   H
   28.1413   30.3042   39.2960   O
    8.3708    7.9565   -9.4295   S
   28.7930   26.6361  -21.5449   C
  -38.4862   40.3397  -29.4572   O
   45.3416  -36.7757  -26.9275   C
  -33.0569  -46.0608  -16.7799   O
  -13.7980   -5.8504   24.9703   H
  -48.5363    7.2668  -12.7064   N
  -40.5913  -14.4250   -3.3862   S
  -15.9177  -41.0476   34.0157   H
  -35.6937   -0.7964   16.2401   N
   -1.9845  -32.1549  -17.9984   H
   43.5480   11.9984  -18.1870   O
   15.2629  -40.8961  -15.7007   O
   -9.0267  -25.4617   14.0603   H
   47.6145   26.0637  -24.0465   H
   28.7451    9.7309   36.2318   C
   23.0523   -4.6560   -7.6331   S
   45.9117  -34.4869  -38.5136   H
  -20.9712   28.9791    5.1290   O
  -19.8938  -15.2288  -25.5787   S
   25.4434  -10.5533  -24.4046   C
  -35.1049  -33.0868   38.0389   C
  -23.8000   41.8479   47.6755   N
    5.3061  -23.7888   40.4680   S
   -7.6942   -1.0207   -1.6641   N
  -42.5790   -6.4754   23.4206   S
   -8.3682   -7.0760  -20.5028   S
   39.2106  -29.7674    9.8824   C
   26.4100   -8.9943    8.1235   N
  -20.7597   44.4204   16.9692   S
   30.2209  -19.5341    7.8576   C
  -39.6530  -21.4872  -22.9555   O
  -49.3961   32.3322   35.3024   C
   -3.5646   32.5247  -34.5233   S
  -42.0745    9.6482   45.2081   N
M  END
$$$$
