Generated Ligand
Programmatically generated
Comment line
100  0  0  0  0  0            999 V2000
  -12.6610   -0.1839   -4.7409   C
   31.9827  -22.9668   -9.3079   C
   25.9022   -5.2645    0.0626   N
   37.9706   44.8563   47.5954   N
   -7.1902  -13.4493   -9.9599   C
   10.5425   38.3512  -27.8285   C
   24.0639   47.7384  -45.4837   N
  -41.1647  -11.5560  -28.0173   N
  -25.3226   45.4649  -31.2913   N
   21.3899   47.4599  -37.2159   O
  -26.6520    1.9273   41.8281   S
    3.9810   37.4587   -2.2907   N
  -34.6664   45.2171    3.4354   N
  -12.8220  -47.5147  -32.7163   H
  -46.6951  -10.7631  -19.7842   C
   -1.8436   21.6219  -29.1953   S
   45.6523  -41.3418   48.1382   H
   45.5854   40.6872  -23.8116   O
    6.9091  -18.1062   -0.9981   S
  -49.2582   47.6170   22.5014   O
  -18.3705  -28.5177   43.0699   O
    1.8915   -5.9758  -17.6216   O
    0.4621   11.9438   45.2843   O
  -22.6906    3.6258   -1.2493   N
   30.9915  -31.6590   15.0958   S
  -33.5916  -49.7411   17.7674   C
  -39.5269    4.8398    6.5225   C
   49.5334   24.3623   20.4432   C
  -44.2226  -33.0499  -47.5599   N
  -43.8319   32.4245  -34.8645   H
   21.8075   -9.7666   -0.4147   H
   -2.9775   11.8345   -3.5484   N
   23.7853  -32.5875  -42.7932   N
    4.6438  -16.7111   24.1424   O
   35.5386   -3.8883   33.9388   C
   36.3551   25.3787   -1.2289   H
  -47.2173  -43.1404  -20.5639   O
   42.4329   -0.6487    4.0714   O
    0.5429    1.7415    2.0371   C
  -33.3632   -7.1872   43.5506   H
   -4.9579  -31.4235   31.6295   H
   25.3941   -3.3822  -47.8063   N
   18.4952   40.7800  -19.7710   N
    2.3690  -25.8890    6.5985   O
   -1.6970    4.3672   17.3781   C
   35.9982  -38.2512   46.8704   O
  -14.7486   10.5388  -10.5996   C
   33.8210  -25.7074  -32.3024   C
   -4.9464   32.1549   39.5370   S
  -13.6886   28.0213  -15.8279   C
   24.5595  -29.6322   12.3910   O
   31.3774    9.9760   49.0213   H
   27.1506   41.6782   20.0740   H
   27.7334  -40.7839   30.0271   S
  -44.1465  -43.6023   11.8367   N
  -28.9079   -6.1411   28.6100   H
  -39.2419  -19.3655  -25.6091   O
    8.3022  -25.1875    4.6086   C
   45.5650  -10.2835   28.4263   O
   47.8612  -32.7584   17.6530   C
   46.2449   46.2746   16.6969   C
   20.0878   -9.2293   45.2432   H
  -44.8953  -12.6666  -21.2563   N
  -25.9501   32.1211  -34.5674   C
   -0.3507   14.4574   26.9746   C
   31.7907   19.3107   45.8624   H
  -39.7194   28.3492    3.5430   N
  -16.0700   35.6871   37.0924   H
  -44.8080  -13.0964  -14.8227   H
   13.6271  -46.8271   -8.3517   S
   38.6947   49.7583  -31.5999   O
  -32.0796  -37.2024   -0.6512   N
  -40.5844  -26.4690   18.4476   C
  -19.8430   47.1026  -10.2516   H
   24.5470  -45.4441  -30.6696   O
   35.4410   28.6239   25.1556   O
  -44.6918  -25.7082   44.6034   O
  -11.0818  -46.5528  -19.8665   H
   -1.2060   19.8130   43.2426   S
   35.1942  -31.2380   48.4661   N
  -12.3511    7.7522  -11.4868   N
  -10.8074   45.7050    3.5437   S
  -26.2031   25.4216   37.4241   H
   17.3439   22.0257   36.1944   O
   12.4334    0.4808  -44.9045   S
  -11.8454   14.9936  -37.7880   C
   20.8605  -28.9027  -39.8461   C
   27.6762   19.9999   19.6214   S
    5.3359   48.5824   44.8167   S
  -23.2735   -8.5916  -41.0561   N
   38.4725    0.7408   30.4186   S
    7.5871  -13.0678  -11.5342   S
  -28.7227   43.3353   -9.0029   N
   10.4643  -44.6874  -22.2532   C
   45.9768   14.0465  -16.7723   C
   19.1167   -6.1615   46.8567   O
   20.0838  -18.3022  -29.4145   H
   11.7457   29.9856   23.5517   O
  -35.4661   43.6563   -6.5753   C
  -15.8926  -20.6525   16.8254   O
M  END
$$$$
