Generated Ligand
Programmatically generated
Comment line
100  0  0  0  0  0            999 V2000
  -39.5471   37.8706  -20.6397   S
   37.9844   36.2158    5.4424   N
  -15.5427   40.2313  -32.6891   C
  -12.0926   44.6591  -14.2836   H
  -16.5930  -33.5404   39.4736   C
  -18.4783   28.8908  -40.5358   H
   41.8693  -38.7239    9.7387   H
  -39.1623  -18.5767   -2.7185   S
   25.9564  -45.8903  -13.9248   H
  -35.1143   36.1325   44.7872   N
   44.8704   28.9602   14.2917   N
  -10.2038   27.6037   28.1609   C
  -34.1064   48.7699   14.5228   S
    0.5316  -13.9594  -44.9059   O
  -14.4354   10.6424  -33.9439   H
  -12.4515   21.1865   39.4993   H
  -17.8155  -23.3028   -7.6396   S
   13.1093    2.7558  -29.4307   S
   32.5379   22.9524   -9.8721   C
   22.4376   17.1013  -49.6031   N
  -41.2175   19.1520  -13.5426   S
  -35.7507   37.8112  -37.8956   S
   10.9538   14.0519  -19.2069   C
    4.4462  -22.5772   49.0316   C
  -33.9954   22.0853  -23.2784   N
  -47.0452  -17.6926    0.0569   N
   19.3308  -18.2579   29.5174   S
  -41.7110   -3.9652   -6.1771   O
   45.3141   -9.4357  -43.7918   C
   37.8368  -22.3551   49.2822   O
   43.4717  -22.3258    2.1647   C
   12.0022   44.0804  -45.2120   H
  -19.6590    5.5398   -2.1130   C
   41.1542  -35.4125   41.9696   N
  -48.7543   33.3467   10.0067   S
   47.2829  -49.5840   37.8433   S
  -12.4057   -5.0623  -40.1922   S
    3.5041  -34.4258   26.1827   N
  -41.2737   31.5703  -39.4158   C
   -1.1409   42.2737   32.9996   O
   45.3506   23.6261   12.6617   S
   -1.4366   13.6400  -26.2393   S
   49.4997  -47.4162  -15.0462   S
   -7.9590    2.4149   22.1275   C
  -26.1430  -22.7020    9.5889   C
    0.8273   11.8515   -9.0200   C
   18.6358    7.8818  -24.2683   N
  -30.0680   27.5984  -19.9794   N
  -36.2569   -6.3043    4.7620   C
   31.7671  -18.8158   17.4002   N
   -8.6205  -11.9562  -42.7132   N
   31.6400   40.2447   -4.9943   O
  -36.6158   15.6964  -28.8938   N
   -0.8598   25.1213  -22.5523   S
   20.9198  -41.8236  -31.6147   S
   46.4970   -4.4256   12.3471   N
  -14.3592   40.9508  -49.8535   C
  -17.9104   41.5327   11.4325   N
   -2.1315    7.1621  -44.6005   S
    9.4541   -3.8439   11.5503   O
  -42.6088   44.5936  -13.5538   C
  -35.5073  -47.8653  -25.0635   O
   45.9110  -39.3447   13.2627   S
   35.7617  -29.9828  -26.7041   N
  -18.1944   25.5574   -7.4009   C
  -20.0339   21.4092    3.4810   C
   30.9954   23.2234  -39.8525   S
   48.2463   33.1172   44.0641   O
   10.6272   21.2203   23.2693   O
   13.8600   27.1350  -35.9582   C
  -40.9343   19.9421  -36.7798   N
    0.0713    4.1756  -45.9647   H
    9.5913   41.8210  -31.0540   N
  -31.8301   16.3871   -2.7282   S
   47.0140   32.6753  -27.9616   O
   15.3805   38.1642   36.8635   N
  -28.4777   38.5010  -16.4128   C
   17.1312   33.8003  -49.1214   H
   25.8116  -13.1417  -32.2494   O
    5.1773  -46.5140   42.6617   N
   -0.3991  -39.9781  -33.8243   C
    6.5698   42.9496   36.8917   S
   25.7139   37.5023  -47.2009   C
  -17.0063   10.4796  -11.6451   N
   42.3842   -3.2659  -40.0882   S
   17.7115   30.4002  -20.8961   C
   -5.4577  -44.4225   17.6088   C
   29.7505  -21.6601   19.1308   H
   40.1810    8.7801   12.0610   N
   41.6160  -49.8852  -19.2681   N
    9.0379   14.5690   -6.9446   H
   22.5187  -13.8917   38.0620   N
   36.9931  -41.5959   37.9804   N
  -26.8945    7.3848    6.7370   O
   13.8662  -47.2393   41.2359   H
  -11.4064   -7.1267  -37.6965   H
    7.1646  -21.8965  -24.8578   C
  -46.8553  -29.2924   40.1986   S
   15.9786  -37.4048    9.4802   S
   23.3213  -30.1154  -29.7622   N
M  END
$$$$
