Generated Ligand
Programmatically generated
Comment line
100  0  0  0  0  0            999 V2000
   32.5945   20.9032   47.6124   N
   19.5562  -19.5305  -38.8633   H
  -18.9042  -32.6842  -21.7179   S
  -45.8407  -14.9492   37.5083   H
  -15.3967  -24.5983   28.4813   C
   -2.9150   25.6362  -43.1369   C
  -21.3538  -32.8145  -13.8323   N
  -25.9238   10.5832   13.8639   S
   25.7983   38.9060   31.4929   O
   32.6006  -20.5338  -24.5301   H
   17.7195  -40.7352   30.0494   N
   -2.0858   17.3763   37.1539   O
  -42.0674   36.5805   32.5997   N
  -17.2407  -26.4450  -26.1586   O
   25.9021   -7.4535  -17.7475   C
   17.2565   42.4667   16.1406   N
   30.6790   25.8533   -7.4026   O
  -22.6271   21.6866   -4.8074   S
    1.8217   12.3289  -21.2644   H
  -42.7605  -25.7597    2.0759   S
  -44.2937   34.3200  -26.5500   N
   12.5372  -46.8053   46.3167   C
  -16.7619   14.8520  -35.9523   H
   34.8105  -22.8713    9.4117   H
   39.8694  -47.6989  -27.6916   O
  -23.3421  -42.8000  -30.4869   S
  -42.0036   -6.4073  -21.2600   C
   31.4983  -41.3751  -42.4491   S
   15.0695  -16.2634  -43.5084   C
  -45.7413   24.8041   19.7345   C
   -9.7964  -38.7935   36.9989   O
   23.3759   16.3127   18.1430   H
   -6.1710  -23.3529  -31.7547   C
   49.5121   34.8547  -30.6127   H
    4.9872   35.3933  -19.3676   C
   35.8214   49.3331  -24.3597   C
   -0.3537   36.6300   -9.2397   O
   49.1331   20.2762    6.8301   C
    2.2432   17.8694  -15.9553   H
    5.5819   -7.8961    3.7059   O
   31.0438  -31.1229   35.1482   H
   23.8498  -21.5005   34.8657   C
   31.9210  -37.7150  -28.1233   C
   48.6482   30.7459  -26.4112   O
   32.8272  -29.6372   14.4820   C
  -18.6675   37.4826    7.3104   H
  -48.5373   27.3451   -5.4199   S
   45.0596    3.8449   37.8407   C
   33.1494  -34.5664   47.5950   H
  -31.1928  -28.2419   26.0909   N
  -48.7714   40.4418   -7.7917   H
  -17.6632  -10.4888  -17.7606   S
   17.0310    4.9956  -40.8635   N
   16.2594  -32.6040  -35.8378   S
  -20.9391   17.9839    0.2442   S
  -17.6790   32.7538  -30.5053   S
  -32.1937  -25.0663  -48.4837   H
  -41.5653    2.0779  -27.2328   S
  -44.3842    6.4333   22.1305   N
   32.4787   36.9276   -0.2937   H
    8.0203   43.4165    5.7074   H
  -14.4567  -15.2294   33.4587   S
  -45.9570  -49.1375   46.2287   O
   46.2275   42.3255    5.1435   O
    7.4542    3.1014  -49.4707   H
   31.2644  -43.3513   24.7934   S
   25.3852   11.0228   -6.6000   O
   48.8917   48.4290   19.9897   S
  -17.4270  -11.0585  -18.4044   N
   29.7712  -26.7604   35.6206   N
   48.9898  -24.6743    3.3650   C
   13.7629  -32.7832  -22.7608   C
  -40.6090  -18.3035   39.6346   S
  -47.3618   28.4266  -37.1416   N
  -21.5267  -44.1664  -29.8187   N
  -11.0711  -44.6171   -0.0781   H
  -14.6070   -5.0311   -4.5651   O
  -10.0098   34.0931    4.2599   C
  -23.1232   23.6002    3.7254   H
  -43.3723  -11.2823    6.0628   O
  -22.3132  -20.0982   20.4728   S
   17.2403  -19.5398   15.9602   O
   39.4014  -35.0300  -24.5775   N
  -28.4538   41.5243   26.3282   C
  -19.3598   16.0943   17.3898   N
  -38.8759   33.0033  -38.6018   S
  -34.3413  -39.5537  -44.9052   O
   15.6264   24.0809  -30.4118   H
  -19.8262    3.3767  -37.9999   C
   48.2545   -5.2917   -9.1147   O
   26.5981   -4.3958  -28.4095   C
   11.3409   48.4985  -41.4079   N
    5.7057   10.3583  -47.8582   H
  -25.7870  -30.7674    5.9060   S
  -33.7306  -14.1100  -38.2079   N
   42.1002   20.6397   43.9442   O
  -13.9209   44.9894   -4.4228   C
  -43.2596    2.1621   46.9525   C
   -8.4663  -34.0582   12.4329   H
   20.9641    7.9388   48.7166   S
M  END
$$$$
