Generated Ligand
Programmatically generated
Comment line
100  0  0  0  0  0            999 V2000
  -19.3641    2.7202   26.5242   N
   -7.8125  -48.8680   16.4885   S
  -22.7354   28.7208   39.7527   N
   26.6428  -37.0618  -37.4968   S
  -38.3654  -40.6884  -42.0383   N
  -43.2616    1.5854  -26.1261   N
  -31.0557   15.0395   27.0803   C
   26.0088  -16.5769    9.2243   H
  -17.6736   29.5860   46.2742   N
   13.1132  -15.2200  -32.6526   N
   45.4527   49.3464   26.0606   C
  -17.4214  -14.6368  -31.4495   N
   -9.1736   -0.6048    2.1161   H
   40.3408  -19.8755  -33.6204   S
   26.3879    5.8838  -41.6681   N
   -4.6376   -8.7066    1.2663   C
    9.3515  -38.5614   13.6116   H
   20.5737  -49.4354   48.1424   O
   -4.0125   46.0558    8.2749   N
  -38.9184   37.8419  -13.7855   N
   17.5869   23.4926  -10.4836   O
  -49.7479  -23.8033  -44.3473   S
   -3.8544   14.3757   -8.9830   O
    5.3064   34.4971   26.2962   S
   48.2125   -5.6413   45.6750   N
  -25.2815    3.9902   41.2713   C
   -6.9694    5.6261  -36.7050   C
  -29.9551   20.1079  -25.1091   H
   20.7126    3.6589   -9.5909   C
   -7.7394  -40.3569   -5.3247   O
  -44.3545   37.9432   -9.8109   H
  -15.3166  -40.3000  -13.9589   C
   14.2705   25.8779   -6.7741   N
  -16.6014  -36.0504  -25.6320   H
   12.8105   12.2508   49.5227   S
  -40.1898  -15.0366  -16.7196   N
  -21.5197  -28.9620    8.3135   C
   -2.9607   11.1870  -17.2503   H
  -19.2268    5.9996    3.5977   H
   -0.5128  -30.1087   45.5146   S
   39.1420   14.0260  -10.5883   O
   16.7213   -2.4480  -37.5516   H
   36.7308  -22.7435   26.7410   O
  -12.0678   30.5311   44.5281   S
  -36.4166   42.6628  -26.4622   N
   25.3091   18.7148   34.8353   O
  -48.8574   -8.2815   47.3546   N
  -39.5149    0.0583    8.1815   N
  -49.8301   12.8306  -45.0045   C
   44.1990   23.5925  -49.0638   C
  -49.7435   16.8885   21.7456   N
   37.2558    3.4902  -14.0120   C
  -38.5651  -18.9191   31.4840   N
   39.0226  -32.5134  -32.9208   S
    7.2419   20.4761  -35.4768   S
   34.8505  -21.9134   -9.4038   C
   46.4397   16.9210  -12.2082   O
   22.3900  -46.8964  -42.8837   O
  -12.5486  -19.7572   16.1468   S
   46.2777   12.1807   13.9154   C
   45.8688  -37.1180   -3.4127   S
  -45.5232  -23.0237   14.3258   O
  -35.0040   19.4977    7.9454   S
  -41.5289  -15.1684  -38.3490   O
  -35.7776  -34.7165  -40.7196   C
  -45.0565  -21.8285  -28.0957   N
   -6.0368   -8.2857  -24.2251   S
    4.3506  -29.4750   36.9514   C
    5.4430  -30.4079  -23.8483   C
   15.9691    5.8975  -17.5632   O
   -2.1370   41.1995  -25.6175   O
  -15.5583   41.0238  -39.1996   H
  -16.5169  -36.9008   -2.9352   N
  -44.8581   24.7053  -11.0473   C
  -48.3800   24.7536   -6.0631   C
  -17.3693   -4.6234  -30.0271   C
  -41.8147  -15.1146   36.0900   S
   12.0117   31.2826   25.9832   C
  -18.0401  -24.2750   22.9683   N
   44.1972  -48.2639  -40.9015   C
  -20.5855  -20.8534  -41.2790   C
    5.7898   -2.6076   24.4690   H
    7.4155  -12.2400   48.7325   S
  -13.3357  -13.2156   49.0163   O
  -33.7925  -36.5092   15.5902   O
   40.0374  -24.3531  -44.8365   C
  -40.8220    9.1039   10.1094   O
   31.2020    3.8650  -46.0546   H
  -16.5361  -46.9621   36.5292   S
  -48.1335   28.4514   14.8898   C
  -18.7376  -29.2167  -25.7546   S
  -19.1553    7.9020  -16.3189   N
  -30.5630  -10.3879   48.2567   H
   44.3591   40.1637  -24.6933   N
   17.0938   25.8041   11.8126   S
  -36.8508  -46.4444   24.0774   C
   15.7885   -7.6574    8.9685   N
  -40.5074   13.5989   40.0132   C
   37.9744   -0.5809   -0.9005   C
   26.7489   46.9110    9.5272   H
M  END
$$$$
