Generated Ligand
Programmatically generated
Comment line
100  0  0  0  0  0            999 V2000
  -47.6723  -44.0759  -43.9105   N
   41.3718   26.2484  -34.5777   H
  -18.6060  -19.0283  -19.1430   S
   26.2623   49.2029   -9.2728   H
   15.0169   19.4163  -20.1811   C
  -22.2526    8.8984  -26.8860   O
  -33.4245   45.8945   34.1134   C
   -1.1515   -1.2593  -32.8218   S
  -41.1556    5.9319   38.8261   S
  -39.2327   48.9871  -27.1895   N
  -29.1110   24.6820  -39.4154   S
  -28.7704   24.4979   -8.2377   O
   12.2819   -4.8487   39.6879   H
  -22.0407   38.7413  -15.8687   C
   39.9814   32.4964  -14.1772   O
   37.6928  -32.1720   12.7134   N
   36.6892  -40.4446    0.2186   H
   -4.1885   20.3304   48.6217   H
    8.7788   17.4252  -29.1879   O
   12.6349  -21.1057  -17.8696   C
   22.1644   18.1364   19.6412   C
  -30.7613  -41.7333   22.4655   H
  -46.7310  -37.5373  -13.6725   C
   49.9438  -40.9170   16.9686   N
   27.7672   48.2690  -25.3122   S
   49.8703   14.6153   19.4002   H
   27.8485    2.2385   31.8367   S
   12.2933   -1.3299  -46.7579   S
   40.3456   22.7300  -42.8516   H
   19.3697    1.7011  -24.2133   H
   16.8745   12.9488   21.5835   S
   17.9756   -8.5029   11.4093   N
   17.1010   -5.4385  -40.9998   O
   25.1313  -40.9547    1.2765   O
  -36.3285   48.9144    4.3036   H
  -27.3283   23.7845  -34.7954   N
  -22.7692   -6.2642   22.0087   C
   15.5195   -8.6923  -48.7500   S
  -17.6690   48.4927  -46.0333   C
  -11.3125   14.4911    6.1042   N
    1.9633   33.8059  -37.8659   N
  -22.8148  -24.2150  -18.2950   N
   31.1527   24.9932   39.6229   S
  -41.1967  -12.8484   -9.9616   H
   21.3518   -9.9160   20.9924   S
  -11.3736  -35.8494  -28.1848   H
   32.3822   27.4357   47.8835   O
  -25.3357   18.6634   30.4800   C
   32.6914   35.9144  -13.0696   S
  -47.9135  -19.5762   40.1644   N
  -29.8505  -16.6510   30.4702   O
  -28.8932   30.5537  -27.5544   C
  -24.4362   21.2464    9.3271   C
   38.3874   10.1364   -6.9774   O
   19.1176  -37.6069  -28.6662   N
   39.8824   25.3177  -16.7470   N
    3.0717  -39.2390  -22.3494   S
  -27.5313   21.8642  -22.6037   N
   43.4852   19.6048  -11.5055   N
   -6.2320   -1.7636  -17.6570   N
   31.4660  -27.6563   33.8984   N
   -8.4960   12.0409   24.7423   N
   16.5721    7.7980  -21.1370   C
  -17.5991   38.6290  -24.6971   N
   26.5816   17.7214    2.4207   S
   -4.0606  -22.9303  -36.7623   S
  -39.5765   18.9246   18.5133   C
  -10.9724   40.9363  -41.8311   S
   -2.7117  -25.9902  -28.9083   O
  -25.8896   47.2841  -21.6398   C
    1.6152   34.9187  -30.9088   H
  -31.5881   45.3234  -19.7194   C
   36.1379   14.4283   14.7186   H
   23.8896  -24.7205  -12.6242   O
   13.2650   -9.7293   -4.5605   H
   42.1061   23.2622   17.8804   O
  -19.3345   22.4089   -8.3865   C
    7.2801   16.4275   35.8332   O
   41.8529  -42.5666  -33.0844   H
   44.1796    4.0360   -4.7818   S
  -34.0009  -20.0524  -40.2476   S
  -19.6815   43.6204   41.7102   C
   42.0010   23.1986   15.4219   O
    7.9476  -34.1266   39.4606   H
    7.6153  -14.5271  -33.5737   S
   36.2245   -3.8981  -37.9494   N
   25.2969  -10.8023   38.0432   O
   36.0789  -35.4248   22.0754   O
   39.5930  -32.7304   46.2236   N
    3.3976   49.4048   29.0431   S
   28.3855  -24.1037   18.9740   C
    4.7734  -47.5023   36.2119   H
   -1.9247  -47.8928  -21.9067   C
  -32.3524   29.3740   45.5477   C
  -32.9662  -47.1365  -40.4494   S
  -48.2026   -7.6840   43.2638   H
   45.8174   39.2588  -18.2953   S
  -24.4023  -46.1361   47.1662   H
    8.5065   18.0641  -46.4088   C
  -25.4850   -8.6626  -48.9040   C
M  END
$$$$
