Generated Ligand
Programmatically generated
Comment line
100  0  0  0  0  0            999 V2000
   43.0234   12.7522  -36.4527   N
  -25.3101   -7.2457  -12.3253   C
   48.0883   -7.6858   37.7944   C
  -28.2634  -18.0945   22.8530   S
    4.1072  -18.8908  -43.6062   S
   37.1177   43.0386  -10.8339   O
    6.6328   -8.6775   48.4789   S
   23.3578  -15.8788  -22.5507   S
  -26.9056  -46.7112    1.5012   N
   28.7108  -42.1432  -35.2594   O
    6.0117    2.8088  -25.0689   S
  -43.8775  -42.1335  -25.3456   O
   -2.8310  -26.6374  -17.3542   H
    0.4375  -19.8204    8.3421   S
   -5.8283  -35.0158  -46.9534   O
  -16.1410   24.8067  -41.6372   C
   -0.1477  -30.2784    0.0118   N
  -16.0893  -46.1457   21.6510   N
   19.3644   26.0264    8.7831   C
   44.1981  -30.1768  -49.8178   N
   -3.4981  -19.9435  -23.2760   O
   19.5239  -13.9262   11.1688   S
  -37.2710   -5.2538   20.0279   H
   17.9932  -21.3989   15.3518   S
   10.7704  -48.3758  -25.9098   O
   26.8610    4.9037  -38.4917   C
    5.7145  -36.3907  -45.9185   C
   27.3807   -7.5011  -40.9943   N
   -7.0801  -18.9480  -30.4082   S
   36.8476  -33.0825  -23.2968   C
   -2.6983   25.5091    8.8163   C
  -30.5115  -41.9621  -32.5533   C
  -19.9717   24.5599   29.6446   H
  -11.1834  -29.7920   28.0069   N
   37.0925  -16.9185  -17.4486   O
   17.7232   43.9148   14.6001   C
  -37.3996  -18.7900  -16.7216   O
   36.0020  -47.0340    7.2447   H
   -3.6338  -25.0425  -11.3751   C
   46.7624   44.6927  -37.6057   O
   30.9220   38.1418   -4.5804   H
   24.3836  -34.2673    0.3694   S
   11.1515  -37.5064   36.0273   H
  -48.3947   13.1077  -37.0716   H
   40.1313  -10.0727   45.8459   C
   10.7983    1.5134   18.7711   H
   -6.0129  -15.8314    8.0175   H
   -8.2660   45.3542   35.8940   H
   16.0344  -17.2889  -26.0426   C
  -27.4634  -33.7017   16.8312   S
   31.1113  -41.9599  -45.8785   C
  -27.5717    0.7943  -44.6974   S
  -16.5052   -6.8903  -48.5698   S
   -3.0877  -39.2614  -18.5023   O
   16.7132   15.8427  -16.7813   H
   44.9499   48.5719   45.1685   N
    1.3878  -49.5226   -9.9896   N
  -32.9642    5.0243  -33.9157   C
   26.3271   16.1120   14.7749   O
  -14.5812   47.4791   39.7015   C
   -2.8754  -35.7327  -32.5478   N
   -6.9167    0.6066  -22.7945   O
  -29.8478  -45.5274  -21.3312   H
  -16.9183   47.0299  -47.1049   N
   14.5087  -18.7512   31.2194   H
  -37.5652   -9.8386  -16.7465   O
   47.7255  -33.8861   -4.9454   S
    6.6375   38.4431   29.9459   H
  -36.6941   39.7131  -20.1244   S
   23.7110   34.2670    3.6734   C
   41.3178   23.8018   46.0675   C
   48.2124  -30.6086  -17.4347   S
   47.5295   24.3637   22.5712   S
   34.9007  -46.1527  -12.0276   O
   46.5259  -45.5061   -7.3989   O
  -28.9427   18.2686   14.0015   S
  -24.4144  -17.2084  -28.5859   N
   27.4763  -40.5212   32.6725   C
  -10.5088   19.1565   44.0517   S
   48.9910  -48.5174   18.4813   O
   42.4655   47.6860   40.6774   S
  -46.3380  -26.4020   23.3227   N
   -4.5334   -3.9989   29.7952   H
   29.2318  -32.5237  -31.3023   C
   -3.4268   11.4460   20.8426   H
   47.4799    7.0790   12.0148   S
   18.6909  -21.7443  -35.6375   N
   42.2186    9.9845  -44.1660   C
    2.7201  -35.1578   -0.7707   S
  -46.5144  -29.4726  -17.5413   C
   39.2257  -14.8162   38.0000   O
   33.6649   13.3474    2.5204   H
   -1.6647   11.7608   -3.7539   H
  -11.5382   29.8556   48.4974   C
   11.3609   42.3779    3.7609   O
  -49.8185   48.0223   -8.5703   S
  -21.4511   10.7081   44.2232   C
   31.0525   13.3527  -35.5346   N
  -23.6340  -30.1122   23.2045   O
   46.4627   -7.2162  -10.7339   N
M  END
$$$$
