Generated Ligand
Programmatically generated
Comment line
100  0  0  0  0  0            999 V2000
   33.1000   44.7204  -17.8909   S
   24.3645   45.6522  -24.0626   C
    4.4625  -16.4167   10.1211   O
   37.1613   35.6069  -49.5042   S
  -28.9276    7.1256   32.9210   C
   25.6860   34.7608  -24.9270   O
  -42.6624  -33.4561   34.9285   N
  -29.3688   31.3415  -20.6436   C
  -16.2263   16.5867   -5.6176   H
  -13.5735   19.8382  -44.3767   S
    4.4111  -45.2336   -6.3794   O
    2.9712   13.3522  -40.3650   C
    8.3433   46.4876  -41.1472   S
    5.9698  -20.2553  -16.0045   S
   28.3195  -24.0321   40.1679   C
   -3.4667   14.2937    0.5567   S
  -42.5494   32.6556   22.3963   C
  -29.3637   49.3986  -23.1578   S
  -32.9557   44.1900   32.2019   O
   -2.0575  -27.6101   40.0668   H
    0.7506   46.6129   30.8978   H
   -8.2354   47.2069  -44.4448   C
   20.3240  -18.5989   21.3130   O
    2.8944  -10.2281  -24.0250   O
   -9.8010  -46.7801  -43.3416   N
    0.7517  -48.3691   -8.5406   H
    7.5201   11.6554   16.5576   H
  -39.4464   17.4175  -13.2258   O
   23.5121   22.8155  -35.7325   N
  -45.4218  -19.1346   -7.7880   O
   -4.8863    7.0301  -28.9305   N
   45.3949   -8.9646   12.6227   S
   14.5514  -24.1741   45.2066   S
    6.2648   34.4687   19.8694   C
   30.8036   20.5828  -35.6199   S
   14.1503   19.5862  -16.3495   H
    0.4606   46.5885   -2.9944   N
   -9.4139  -42.2905  -27.1112   S
   -7.9832  -34.6511    1.8114   S
   41.2635  -47.3687   13.7774   N
   22.6649   46.7678    7.6877   N
   45.0445  -13.5988  -11.9507   H
   49.0980   44.3516  -34.6339   O
  -31.1877   17.2754   36.5916   S
   11.6132   10.8182  -31.5467   N
  -26.4950   41.8085  -16.8823   H
  -49.4183   -5.8665   -5.4274   H
   23.4006    8.8843   -4.1429   O
   44.5146  -38.0102   25.4417   C
   17.0931   32.8169  -41.0086   S
   -3.7677  -10.2368   24.5839   H
  -35.6149    4.1101   14.6479   C
   46.6326    4.2830   24.1122   O
  -15.6376  -27.9842   34.9329   N
  -22.0607    3.4005  -42.8030   S
  -42.0188   29.5174  -13.0045   C
   11.7451  -30.9341   18.0250   O
   33.2797    9.8275   25.2283   C
  -44.6618    5.8477  -19.5910   O
  -30.9572  -42.6177   48.6355   O
    0.6195   13.2347  -19.7087   O
   -9.8726   -5.8236  -24.4992   O
  -20.8374   39.9482   26.1392   O
   33.6650  -33.9044    8.4260   N
   14.3894  -49.4735   43.8146   S
   10.4355  -12.9410   23.6906   C
   17.1023   37.4869  -28.3086   O
    5.8927    9.2685   -1.3962   C
   46.8698   34.3629  -28.1123   N
  -12.5852   39.6144   37.6791   H
   43.6515    3.3483   -9.8698   S
  -31.8047   18.4764   -0.0904   S
  -44.0324   13.9717   39.6790   O
   42.0230  -44.0869  -34.4036   C
   -4.4453  -23.7238   17.1448   H
  -12.5081  -16.1625   20.9279   S
  -26.2232  -33.8197   14.1765   C
   -0.4092    7.4126    6.6797   N
   23.7235  -19.6526  -20.9347   N
   -2.2473   -4.8848   38.1079   O
    7.1559  -26.3161   33.5623   N
  -39.8218   -3.0342   43.2179   O
  -19.8458   36.7991    2.5842   C
   42.0290   25.2165   34.4675   O
   -1.0105   41.6728   -4.1659   O
    7.1011   36.9545   48.2801   H
  -26.5977   35.7784   20.8672   S
   26.8436  -44.6873   49.5139   N
    5.4194   18.7250  -26.2611   O
   -9.7585   23.9721  -21.3670   O
   32.3693  -16.6164  -33.7056   C
  -10.3119    7.5622   11.0873   H
  -31.2349  -48.5948   39.9690   S
    9.3760    9.0927   45.0584   C
  -37.1083  -36.2066    4.1621   C
  -31.2194   31.8762  -42.2247   N
  -16.9229   40.2314  -11.4973   N
  -14.0378  -25.0778    7.5584   C
   26.7867  -31.1100    5.4698   C
  -40.6191   40.6513  -37.8298   S
M  END
$$$$
