Generated Ligand
Programmatically generated
Comment line
100  0  0  0  0  0            999 V2000
   47.8935   24.2594  -38.1066   S
  -40.3817   24.6774   27.9560   S
    8.2003   28.4467   46.4131   H
   40.5400  -41.1509   43.8540   H
   13.8686   24.9529    3.9887   H
    6.7765  -17.8613   12.9044   N
   40.1197  -32.0081   -1.3267   C
   37.6665   -5.3178   24.0217   O
   24.1776   19.1533   13.2285   O
  -46.0772   44.1436  -40.0075   N
   -4.2503   38.9949  -38.8065   S
    5.9879   13.0030  -18.7045   S
  -25.1238   41.8310   38.5929   O
   21.6884   11.7147   17.5811   O
  -43.7519    5.1802   37.7329   O
  -22.4263  -47.0912   41.9561   N
   32.3142   16.0438   -1.9431   S
  -31.0012   14.2062  -16.1041   O
   -4.5580   44.4478   14.2036   N
  -27.6282  -20.7918  -28.9633   C
   47.6551   46.2881   19.5593   C
   42.5330  -35.5772    6.1934   H
    4.6110   -3.8587   -4.3855   N
   31.4798  -46.8109   21.5941   H
   46.4227    5.2570   46.8255   S
   -5.7707   32.0160  -28.4789   S
   41.6579   47.3603   -6.3593   C
  -38.9864  -23.3944   32.6065   C
   -8.3909    6.6882  -48.3329   S
   13.3402   43.6460  -42.6340   H
  -15.6543  -21.3064   44.0614   C
  -22.2638    1.4517  -43.1889   H
  -28.6204   39.7807  -23.0853   H
  -22.0834  -37.5361   11.3686   S
   35.1015   14.1985  -47.3341   H
   41.3983  -10.2477   40.2506   C
  -40.6297    5.4363   42.1201   H
   -1.2306    2.8236   18.6000   S
   -3.8633  -45.4957   40.9062   C
  -47.9140  -26.7509   35.3446   H
   21.7092  -16.0385  -24.4239   C
  -35.5437   39.3600   11.0007   O
   14.3748   -5.7024  -49.9042   C
   -7.1536   25.2665   49.5920   H
  -18.6994  -37.4944  -13.4800   S
   30.4867    1.4941  -34.6257   S
   29.2993   49.2935   45.9952   C
   -4.0867  -24.3624   12.3381   C
   21.0788    7.5699   22.3597   H
  -42.5474  -48.7707   -2.4260   N
  -41.6478  -27.1810  -27.4378   H
   29.0165    1.4262   36.4782   S
   48.9338  -31.1318   33.9652   C
   18.6353  -23.0149  -27.6116   H
   49.2435   -1.4975   18.6024   S
   28.3521   11.7554   13.6464   S
   19.3679   -2.5617  -42.9180   H
   32.5397  -32.7406   -5.5656   O
  -37.4737   33.7080  -46.3984   S
   10.5771  -24.7380  -10.5619   H
   -8.9730   40.8915  -44.0039   O
   19.0905   39.1382  -43.3141   O
  -20.7326   11.0303   37.4925   C
    1.1864    1.3014   12.4528   C
   -7.4480   -8.2214  -27.9901   C
   28.1728   -3.7771  -21.9722   C
   22.6477  -16.3460  -20.2089   S
   -4.3229   22.7029  -42.7834   H
   -0.5279   -6.6814   -4.7154   N
  -46.7599  -43.1949  -45.0570   S
  -43.1671   45.7320  -43.1014   N
   24.5239   10.0586   36.5115   S
   42.9187   16.1036  -45.6518   S
   16.5107   37.8344  -13.3455   C
  -19.9506   45.9901   15.8898   H
  -23.2736  -22.5598  -20.4954   N
   16.4567   -9.0971   18.4492   S
   30.3524   46.9695    9.0431   O
   25.6534   38.7296   -5.6250   H
   30.5091  -32.6658   47.9989   O
  -28.0797  -27.2981   17.6690   O
   37.6744  -34.3963   40.2817   O
   11.0035  -10.1820    1.5269   N
  -10.2084  -22.3729  -13.5662   O
  -14.1837  -28.3081   30.7920   C
   46.1597   42.1456  -44.5570   H
   11.2558  -26.9802    0.8255   H
  -24.0044    9.1150   10.3484   C
   -2.0486  -13.2343   31.4839   O
  -33.0061    0.8296   17.4282   C
   -7.3591   39.4727  -19.3463   S
   -9.8582  -34.9786   11.0816   H
   32.1780   33.6060   13.7702   H
    8.3852  -39.2596   40.1169   S
  -14.9269   40.3772  -29.1046   S
   43.3543   30.7507  -39.1904   C
   44.5280  -10.7230  -21.4269   H
  -30.3717  -23.0462   -2.1713   H
  -44.2711   45.6261  -25.5652   C
   -9.9396   11.4152  -34.4143   O
M  END
$$$$
