Generated Ligand
Programmatically generated
Comment line
100  0  0  0  0  0            999 V2000
   -7.3347   -8.4871   23.5357   N
    1.3368   45.7236  -12.2857   O
   31.7905   28.5316  -34.1861   C
  -40.6932   30.3032    5.2918   S
  -39.4323   46.1035    9.9564   H
   -8.4198   -6.5879  -36.2381   N
   -2.0036  -44.7897   28.1515   S
   49.8720  -47.7884   14.5252   N
   16.2195  -18.0062   19.9728   O
   -0.0501   37.0102  -21.9694   C
   22.0546   27.3627    5.1708   H
  -47.6552  -38.5045   16.0593   S
  -34.2744   36.4864   10.2328   C
    9.5925   42.7425   36.8301   S
   26.4754   31.6139  -22.4567   S
   19.4258    3.8999  -39.9938   C
   24.7620    2.4519   15.3612   O
  -27.9540   -6.0573   47.2375   N
   23.7971  -40.6634  -34.4907   S
  -20.3551   18.3080   28.7451   N
   29.0978  -34.9695  -20.4336   N
   17.8030   23.7685   37.9907   C
   26.8005  -35.1631   16.4265   O
   -5.5599    8.5523   -4.6792   O
  -35.7773   47.0551  -41.0157   S
    5.5040  -26.5313  -33.2438   C
   31.5686   36.4078   -2.6521   O
    0.7637   -1.6495  -16.1880   H
   38.5574   17.7901  -21.7622   S
   10.4388    6.7507   18.2783   S
   -1.1238   -1.1474   45.3317   H
   -9.8674   32.7198   15.4482   O
   -3.8713  -18.1605   25.0456   H
   15.5709   48.4155   38.8168   H
   13.3271   31.2493   28.9237   N
  -45.1110  -35.8178  -20.3124   N
   48.3720    8.3391   35.6506   S
  -40.8960   32.1126  -22.6096   C
   15.0928  -39.8979   31.4081   S
  -47.2607   25.5098  -27.7129   C
  -35.5700   24.4086   37.9661   H
   46.4916   38.6492  -22.6292   S
   43.4740    8.2360  -49.2623   C
    0.5240   26.0044  -40.2690   C
   -3.3219   32.9184   41.2103   H
   35.6687  -15.4833  -40.6679   C
    6.3947   -1.1803   36.8239   C
    5.2260   -9.9162   46.4749   S
  -47.7411   11.7365  -44.8873   H
  -46.3980   24.9123  -31.6750   C
  -39.2120   34.8847  -23.5045   O
   45.2257  -35.9672  -34.4767   S
  -49.3642   38.6615  -14.3472   H
  -29.7957   46.8937   -3.8043   H
   -9.7075   19.4716   10.8867   C
    6.0461   30.6012  -47.9868   O
   46.7187   47.5606   -2.7452   H
    6.2083  -28.8979   34.5035   H
  -19.6833  -38.9414  -32.7424   O
   35.1041  -39.8360   30.8427   N
   20.2874   19.5725   42.2460   C
  -25.0119   44.8333  -49.8792   N
   40.2460   11.5078  -16.4661   N
  -35.7595   -6.9953  -39.3649   H
  -41.3667   30.3339   20.3094   O
  -24.3405  -18.2792   47.3210   O
   29.8811  -37.0355  -12.6152   S
   19.4267  -19.1747    6.6810   H
   20.4121   10.0672  -49.4549   H
  -34.3666  -27.9535  -43.4604   N
   12.3579   35.6143   49.2290   N
  -42.5388   38.2710    5.9653   C
  -48.8293    4.3160   48.6687   O
   32.2577  -32.1930   38.2791   H
  -15.7188   48.7185   29.3223   H
  -12.2784    2.9802  -38.9270   N
  -10.1139  -44.2507  -27.1709   H
   -7.1162    9.5979   11.2420   S
  -43.6674   -8.0887  -14.0521   H
   22.5788   11.5220  -10.3226   C
   40.5368   27.1562  -23.8869   N
  -32.1202   32.2822  -17.2725   S
   37.6153  -28.6371  -33.8528   N
  -43.7954  -45.9584  -48.6355   N
  -16.4446   47.5846   34.4982   C
  -20.1119  -38.3446   12.5333   N
   36.2782   38.2799  -38.9066   O
    7.5998   18.1614   12.4160   H
   11.2521   27.0418  -28.3142   S
   22.2588   19.3287  -44.2901   C
   -4.4221    4.3168   -1.7900   N
  -40.8052   39.2879   44.0525   H
   18.3895   17.2558    6.1210   H
  -33.8952   -4.1311   34.3477   O
   42.2352  -32.1665  -20.8854   C
   41.6468  -38.8308  -16.6223   N
  -16.8808   41.8375  -24.7472   N
   -9.5376  -32.3394   44.7417   S
  -25.9249  -16.9511  -25.5721   S
   36.7402  -32.3274   28.2521   C
M  END
$$$$
