Generated Ligand
Programmatically generated
Comment line
100  0  0  0  0  0            999 V2000
  -26.8537   28.5000  -49.3048   H
   -9.6689    9.4132  -30.2029   S
    5.5177   15.4450  -13.0872   H
  -46.0646   -5.6926  -47.0084   N
   -5.2739   -9.3650  -17.3735   C
   43.1337    5.9880  -23.2581   O
    8.7792  -12.5698  -12.9438   S
  -37.3438   -0.6284  -14.3269   O
   -6.2311    2.3660   29.2363   H
  -11.0531   13.7232   21.3265   H
    3.7499   29.6131    9.9388   C
    0.0801   44.9956  -49.1536   S
   12.6641  -10.0436   38.5671   C
   -6.5287   20.3919   24.3357   C
   23.2135    9.9432    2.3795   S
  -27.7630   25.7168  -49.9755   H
   16.0728  -23.5147    6.7777   H
  -16.6857   -8.9424  -19.2427   C
   31.9889   -6.2405   -2.1992   O
   42.5419  -46.5712   21.5754   N
   20.2580    2.9597  -34.0330   O
   36.9060  -15.0698   41.8025   H
   25.1348   32.0767  -24.7756   O
  -47.2864  -29.5483   30.8314   S
  -18.2358   31.6012  -25.7402   N
   35.8777   31.5575   38.1322   H
   49.7112  -42.6671   37.8504   H
   25.8185   26.3550   44.5335   H
    6.4466  -45.9238   -2.4547   H
  -18.0390   45.4424   -9.8804   N
   44.1930  -14.2462   33.7648   C
   23.9434  -25.4797   41.8331   O
   -8.2137   -1.7629   37.6612   S
   36.0421  -36.5216  -18.8705   N
   11.7653  -36.9810   18.9572   H
  -32.5482   17.6174    8.6267   O
   47.8639  -11.9441   40.8283   S
  -30.0246   26.8830  -25.8912   C
   10.6170   12.3169  -31.1972   H
  -26.4056  -32.2344   25.7057   S
  -24.8537   26.1394   13.4994   O
  -15.7998    7.0764  -21.1185   S
    6.5748  -17.4745   -9.5047   N
  -10.9820   -8.0229  -31.4808   O
   24.2506   -5.8654  -47.6827   C
  -21.8016   11.3928    2.8677   H
   19.4851   36.3848   14.6377   C
   21.5303   48.3671  -27.2519   C
   34.0405   15.8490   -7.5161   S
    0.9451   -9.3404    7.6441   C
   40.7576    1.9201  -29.7204   C
   17.3726    2.2304    8.1610   C
   18.1140    7.5530   39.7384   S
   30.9584   33.1128  -29.4071   O
   31.9909   18.1772   -2.2235   O
   26.5005  -18.3535   28.6431   N
   28.8712   -5.9597   21.1304   N
  -25.3654  -20.9417   34.4234   O
  -31.7501   21.5772  -39.8981   O
  -38.7139   43.9785  -27.2954   O
   -2.7291  -17.9452   22.4437   H
   44.5424   23.0236  -36.1421   O
  -10.9147    7.6720   48.8539   S
    9.2292  -15.2622  -45.0154   C
   39.5852   42.6388   13.1455   C
  -15.7387   -2.5184  -46.0983   C
  -17.1865  -48.1825   -8.7272   C
  -33.9456  -29.6772  -45.1714   C
  -49.4792   45.4235   -1.6875   C
   -8.4747   31.8820  -19.2590   S
  -27.7375  -41.7789   -3.4939   S
   15.5697  -30.5191   -8.7962   H
   10.6443    4.4564   14.0206   O
   16.8862   31.7333    4.6410   C
    9.7538  -31.3262  -42.9330   O
   25.8858  -49.8652  -24.9875   N
   -9.3865   33.9807   32.2314   H
  -34.6567   -8.7612  -15.1672   C
  -19.7026   45.1981  -34.7373   N
  -10.2126   18.8378   22.4163   C
    3.8384  -23.1829  -35.8224   S
  -40.9935  -27.5959  -21.5616   S
    5.4831  -12.0651   46.0735   H
  -10.9877   48.7119  -40.5122   O
   43.0732  -29.0006  -33.1787   S
    0.4785  -48.1733   11.0314   S
  -21.7990  -20.2350   22.0399   N
  -26.2095   39.5012   16.1480   S
  -25.4320   49.8697   12.5884   N
   42.5743    9.5828   40.7216   C
   12.4712   28.8538    9.4123   S
    7.8439  -20.4594    7.8219   O
  -29.3834   10.6507   12.7696   O
    8.9813  -31.8902  -47.1195   H
   14.9305  -49.6604  -35.7708   S
   35.6347  -44.1205  -28.9882   O
    5.7735   -0.2675  -15.0403   C
   40.4657   -4.8086  -43.6829   H
   41.1895   27.7170   -4.6733   N
  -29.8178  -12.4148   22.9517   S
M  END
$$$$
