Generated Ligand
Programmatically generated
Comment line
100  0  0  0  0  0            999 V2000
   43.4942    1.1244   45.1040   C
   -1.2102   23.2563   33.7525   S
  -47.3895    2.2133  -32.2033   H
  -32.6593  -18.3356   -5.0171   H
   37.6271   31.5557  -15.0745   O
  -41.0651  -28.4256   48.9639   H
  -24.0917  -21.5260   23.4581   C
   31.7696  -30.5940  -23.9687   N
  -44.1731    8.4648   11.2012   H
   48.1087  -10.6212   -2.6326   C
   -4.6573   -6.5059  -21.5367   N
    8.1838   13.4025   12.3685   O
  -35.3104  -11.4491  -14.3368   N
   13.7775   -8.9758   16.2611   C
   19.8332   23.6845  -29.6823   O
   41.4814   38.9359    4.9140   S
  -32.4596  -44.6851    7.9181   H
   35.2645   12.7608   40.9770   H
    4.8910   13.5711  -46.0861   H
   19.0432  -16.5583  -34.9932   N
   18.6612  -33.8367  -29.6178   H
    9.2785  -17.8745  -49.2148   H
  -12.3559   38.1095   15.2555   S
  -12.3395  -13.0791   46.9105   C
   41.0348   22.3318  -36.4841   H
    7.8364  -34.5400   15.9395   O
    3.3339   35.0485   32.5666   C
  -29.4121   26.2290   18.5879   S
   42.9630   23.9927   16.5511   S
    9.2387   39.5448   -5.4106   S
    4.9635  -13.3714  -18.6189   N
   15.9618   13.9220  -44.3767   C
   25.5039   32.0449  -32.4516   C
   15.3455    6.8313   37.9242   C
  -28.9130   40.5999  -21.2022   O
  -44.9435  -29.3143   14.9779   C
  -13.8681   27.2529   33.6570   S
   17.6646  -27.6256   -0.7230   S
   -7.7743  -37.2009  -28.8504   H
    8.4602   21.7429  -25.6526   S
   32.8477  -23.1974   27.7579   C
   -3.2585   26.3889   -0.8037   S
  -48.3042   12.3324  -34.5730   N
  -45.4384    6.8415  -21.4780   S
  -16.7128  -28.0330   18.1104   C
   27.3859   -6.1828   -4.4002   S
   -2.9359    4.8822  -43.1468   C
   21.9931   40.7859   37.0430   C
  -42.9997   -1.2975  -43.5372   C
  -10.9663   48.3910   24.9360   H
  -29.1328  -14.0289   40.3645   S
   22.0647  -35.3025   -4.9818   H
    4.2810  -14.2529  -26.2266   O
    5.0659  -42.0359  -18.6346   C
   42.5402  -17.4573  -39.7580   S
   24.4086   25.5907   37.2213   C
  -30.3892  -34.1549   34.0218   H
   -0.2813   -2.3126   45.0185   H
  -30.2816   17.7071  -20.0324   N
  -44.8459   32.2545   31.2127   C
  -37.9009   30.0406  -17.7703   H
   31.5906   -6.1743   29.7117   H
  -38.9879  -29.0086   -9.2098   O
  -12.0560    0.0960  -32.8383   C
  -13.4930    7.6909  -22.1894   S
  -30.6137  -43.6651  -28.5003   H
   37.9862   12.6864   -5.6378   S
   30.5699  -38.6526  -45.7443   H
  -38.3094   -6.7184  -31.3142   C
   42.1136   25.5485   42.0498   S
    4.8877  -44.1400  -39.7503   O
   30.8378  -26.4341   13.9123   H
  -25.2766    4.3838   -5.3441   C
  -41.3195   25.1814   40.0277   H
   39.6276   -2.3803   31.8105   S
   49.6492  -34.8187   20.3620   H
   19.4528   22.9864  -45.0518   N
   15.1527  -37.2654   10.6657   N
   -6.6214   10.5222   -1.5000   C
   14.3298  -17.4184    6.8368   H
  -24.9202  -45.2118  -23.2797   S
   46.4867   16.5095  -36.3296   N
  -38.0600   39.2032   13.3104   N
    5.5763  -20.4461  -10.4012   C
    0.9747   34.0702  -20.9961   O
   15.1055  -47.0130   36.6957   O
   -4.5953   17.9761    4.8608   S
    1.9088  -34.1008   16.1095   S
   46.8753   39.1985   40.7271   S
   41.0981  -34.4607   -9.4367   O
   10.9869   45.1223   -5.4043   H
  -28.6166   16.7980  -33.0713   O
   -2.7684  -25.1709   18.9456   S
   10.9102   -8.7242   47.8653   C
    7.5483    9.4145   10.3515   H
   27.8689  -11.6925  -28.1498   S
  -48.6010   17.8444   48.0584   O
   41.9295  -46.7965  -21.1415   O
  -45.4369   34.5543  -37.4525   O
   37.5523  -12.8531   15.1172   H
M  END
$$$$
