Generated Ligand
Programmatically generated
Comment line
100  0  0  0  0  0            999 V2000
  -22.2395  -32.8558   12.4955   C
  -44.0929    6.7512  -40.7412   N
  -32.8153  -27.2509   23.7707   S
  -49.5135  -29.6036  -20.3379   S
   15.4991  -12.8162  -18.1109   C
   26.7496   26.0077   20.2922   O
   21.6792   26.2039  -22.6961   O
   -4.9127  -11.3999   34.1219   C
   11.0951  -22.9679    4.5525   H
   -5.4629    5.6285   27.0811   N
  -19.0895  -33.1186  -25.9117   O
   -4.0994   24.4900   38.5294   C
  -26.7582   -9.7350  -31.8299   C
   43.8952  -18.1959   25.7854   N
    8.4740   35.8549  -36.2770   C
   16.9583  -25.3093   47.3971   S
   14.6461  -38.1200  -44.0779   H
    5.0632   -3.8836   48.6995   C
   19.0943  -23.9400  -36.7245   O
  -12.6363   24.2888   29.3263   O
   -6.6276   39.7901  -32.6756   S
   -9.3371  -31.2079   -7.0673   S
  -27.5229   -9.5028    1.3595   S
  -14.8062  -12.0325  -13.2531   O
   -1.7145  -37.5387   41.6563   C
  -30.2324  -17.7148   19.1468   H
  -23.5362   47.2591   27.3771   N
  -39.3833   -4.1675  -25.1454   C
   22.8605  -45.7834   24.1340   N
    2.9590  -45.7472  -28.6248   N
   16.2293   25.8758  -37.9072   N
  -47.2112   40.2413  -42.4129   H
  -32.0304   18.9722   17.0547   O
   33.1928   34.1711  -29.1095   S
  -12.3196   40.9594   38.2082   H
  -37.7934  -48.8370   38.8857   C
   42.9668   -9.9370   49.6495   N
   15.1892   35.6268  -39.7740   O
  -35.6465   -9.2149    4.4188   C
   18.3603  -48.4392  -45.8498   C
   31.9159    8.8095   12.2580   O
   47.3808   -7.1189   25.7184   N
   16.4332  -34.9111   32.5681   O
  -29.7636  -11.6509   34.6812   H
   -0.2613   -1.6312   -1.0905   H
   -0.0952   -2.4310   35.7634   S
  -18.5986   10.8755   35.0676   O
  -40.0706   -9.9231   11.6785   O
  -19.4820   27.5470   36.8490   H
    0.1339   24.6731  -23.3856   C
   -6.7436  -19.5668   20.3602   H
  -40.0046   37.5852   37.9980   H
  -29.4421  -32.5973  -49.2062   C
   42.8902   42.0206    0.5272   C
   32.0559   42.7084  -19.1389   S
   -5.0565   18.4143   27.0831   O
   34.0351  -25.7477   35.7693   O
  -25.2957   -9.5725   -6.3326   N
    0.4707    2.7261    6.6298   C
  -46.6661   14.4273   19.2303   H
   44.6235   13.6544  -32.3403   S
  -36.1471   15.9423  -32.8837   O
   40.5575  -17.0994   25.7685   N
  -49.3272  -31.0093   18.7607   H
  -28.4816   31.6226    1.3617   H
  -48.8078  -29.3837   31.7317   O
   45.3541  -42.1762   49.7862   N
  -43.9887    8.9936  -18.2554   O
    7.3005   38.4200   31.8734   C
  -18.3851   45.8903  -12.3993   N
  -28.9524  -40.1987   20.3994   N
  -27.9206   -9.7515   29.3883   O
  -45.7859  -38.8558  -28.5498   C
   17.7214  -32.3988    5.9679   O
   23.3233   38.1412   34.2932   N
  -16.0323  -45.8299  -45.4910   N
    5.6192   32.2953   27.7454   H
    7.5441  -19.0230  -14.3481   S
  -33.9456   48.8838   45.8531   O
  -13.0364   47.3633   26.7649   H
   32.1471   13.9819  -26.1805   O
    6.4284  -49.2286   -0.1704   O
    8.8700   37.8122   42.2369   O
  -35.1261   30.2185   -3.0967   H
   48.8042   -4.3383  -10.3861   S
   -4.0294  -49.2114  -13.1100   C
   36.3207   22.6003  -32.2006   S
   30.5909  -34.6842  -44.7930   S
  -38.9960  -12.6276   18.7431   C
   24.1300  -12.7517   45.7128   O
   -7.9059   49.4946   34.8268   C
    8.8575  -29.4251  -46.0079   H
   21.2279  -10.3516   24.3618   O
  -24.1604  -23.9333  -26.2185   H
   15.9066   22.2521   11.2630   C
    8.5318  -10.7667   -7.0704   O
   38.5313   49.6408  -17.2468   H
  -11.1621   16.4122   10.1480   N
  -16.5610  -28.0859   -1.7784   S
   11.2536  -31.8815   -7.9791   H
M  END
$$$$
