Generated Ligand
Programmatically generated
Comment line
100  0  0  0  0  0            999 V2000
  -10.8623  -32.2187  -40.5472   O
   30.8859   40.4525   45.5288   S
   10.5144    3.3486   44.6322   H
   -1.3271   42.4970   -0.3948   O
    8.1605   -1.6383  -15.7374   C
  -32.8955   12.5844  -43.3794   H
  -20.2476   38.1978   38.7771   C
   31.8614   45.4067    7.9763   O
    5.3123   32.2220  -25.4371   O
  -31.4898  -20.2366  -37.7458   N
   12.5102   16.7139   42.9893   O
   42.0954   -7.8715   -3.0362   N
    4.0169   46.4744    0.8091   N
   -3.2896  -46.8998  -28.2808   C
   27.1431   -4.6068   35.8518   O
   30.2924   -2.0017  -45.2450   O
  -40.7056  -25.0850  -21.9202   N
  -41.1000   13.2696   31.6028   H
   28.8795   40.1163    3.8836   O
   16.6702   -9.9359   32.4029   N
   13.7140  -14.8914   42.7580   C
    2.9798   -7.5268  -35.0897   C
   27.0576   21.0447   46.5994   N
  -13.1322   17.8914   23.0547   H
   19.4999   47.2588  -44.6779   C
   -2.0579  -46.5796  -21.5438   O
  -22.3229   26.9952  -12.7528   C
   -2.5192   14.9414   20.5260   N
   -4.9693  -20.0067   -7.0759   C
   13.1180  -12.2165  -31.3875   H
  -24.7958  -40.3602   10.5706   C
   45.9528   29.0240   48.9180   O
  -34.0501  -30.4807  -38.1534   C
   30.8193   28.8784   22.9264   H
   12.5850  -37.1744   -0.6987   N
   13.7364    2.6046   31.4960   H
    9.5272    0.2749  -36.8053   C
  -19.7342   46.1318  -25.2883   O
  -40.1006  -18.2776   -4.5947   S
   14.8038   39.2949   -4.4084   C
  -13.8563    0.1290    8.5219   C
   44.9794  -19.9830   27.0537   N
  -47.5654  -16.0420   28.0452   N
  -28.1151   21.9237    5.2892   O
   14.5747  -38.6890   32.6393   S
  -26.6644   13.2403    4.3168   C
   33.5276   23.2943   15.6214   O
  -35.3608  -29.3765   31.4576   C
  -24.5635  -11.4122  -33.9505   C
  -10.9237   15.6036   32.4455   O
   27.9477  -45.5799   -7.2096   C
  -34.9923  -18.3571   44.4930   N
    8.3638   -8.5291  -15.7055   S
  -37.9559  -35.0007   40.2588   C
   -5.6622   19.1586  -14.3894   S
  -24.1248    1.2598  -30.9597   C
  -39.8085  -26.7101  -36.1470   N
   37.4136  -34.9452    5.5917   O
   14.4867   16.2484   16.9464   O
   36.5947   45.1417   24.2989   S
   15.0398    7.6505   46.0278   S
   48.1255   28.4711  -36.0835   S
   22.7807   -1.4957   16.0068   S
   44.2849  -33.0691  -20.8123   S
   44.2708   45.2672   17.6738   O
   31.7394   21.2151   24.2607   H
  -36.0260    7.6892   18.8199   H
   29.6183   40.9580   11.3629   C
  -45.3710   41.5582  -12.5159   H
   -3.1350    0.7556  -24.2746   S
   33.2444   10.4604   37.7089   C
  -36.0046   15.5263  -43.1631   O
   20.7048  -25.7216  -34.7170   O
   15.0811   -3.3296   -4.0712   S
   27.9182  -40.8145   -6.2944   H
  -24.0799   11.9154   38.6913   C
   12.1464  -24.5793   47.4783   H
   41.6865   22.3781  -10.3403   O
  -11.6878   19.5889    0.1121   C
   -5.9541  -45.5801  -45.3981   O
  -20.8345  -10.3591  -20.6405   H
  -31.2367  -27.1111  -19.3291   N
    1.6767   -7.6422   -3.9010   O
   25.5354    2.4692   23.2069   N
   -1.8994   31.0879  -12.1478   O
   33.8644   17.3926  -35.1311   O
  -27.3857   31.9014   16.6255   C
   43.8293  -10.9367  -38.8357   N
  -23.3891   40.2611   29.0646   O
  -11.2175   30.4559   22.0519   H
  -35.9102   -8.5007   -5.1143   N
   14.0640   16.8067   22.3717   H
  -44.8778   46.9965    3.3556   N
  -41.2592   12.4510  -38.6431   C
  -14.9179  -10.2441  -25.4955   N
   15.6125   25.2554   44.8903   C
  -32.1200   35.3887  -49.3395   C
    4.1059   21.9587   17.9627   H
   11.2750   12.3084   40.0803   O
   -9.8544  -25.4877   -0.2017   C
M  END
$$$$
