Generated Ligand
Programmatically generated
Comment line
100  0  0  0  0  0            999 V2000
   35.9460   34.1401  -19.1212   H
   17.0091  -11.0078   -9.8282   H
  -25.4384    0.9649   13.5006   O
  -47.8531  -46.6044   41.2849   N
   23.8099   37.6769  -47.1267   N
   -7.6599    4.1723  -16.8809   O
   13.0745    6.5210   -2.5028   N
   43.1708   39.3567  -10.5275   S
   12.2244  -49.6940   43.9575   C
   -3.4025  -40.7944  -25.8359   O
   23.9730   -5.8222  -24.9699   O
  -17.2260  -47.4200  -34.8939   H
  -21.7161   45.0697    3.9590   C
   27.8879   38.3338  -28.9025   N
  -35.3056  -30.3413   -4.1131   C
  -14.6247  -29.7774  -43.2408   N
   14.2938  -40.6978  -27.8228   S
  -22.8868   23.9340   47.7721   H
  -35.8434   47.0041   18.5426   H
   37.8971  -20.7620    9.6835   H
  -11.1045  -15.9377   45.9258   C
  -48.2854   -7.6001    3.1077   C
   49.1957   23.0064   44.0546   C
   -8.4884  -10.0268  -12.4124   O
   28.7106   23.5649   -8.3491   O
    4.1976   31.8918   45.9193   C
   28.4977  -26.0170   15.9348   C
  -16.7361   39.3195   -8.7083   N
  -33.3833  -35.5134  -49.4012   C
   -4.3264    1.7706   -5.2365   S
  -44.8355   10.6244   12.8119   O
  -19.3484  -17.0495  -37.4586   O
  -37.0411  -48.1766   42.7161   O
   34.3677  -16.4444  -19.8058   S
   37.2412  -17.8722  -20.9848   C
  -15.8472   21.6449  -15.3440   S
  -49.7576   35.4245   38.8883   S
   12.4116   13.0856  -31.8786   O
  -20.6981  -44.0721   -8.9373   O
  -15.6922   15.8855   42.2202   N
  -23.1273   -8.2848  -24.7729   S
  -19.2625  -14.0248   33.9857   C
   35.9760   -3.9357  -16.3887   N
   29.6822   26.3612  -42.7722   H
   25.5149    2.6390   26.5102   H
    0.4025  -41.5518   32.5670   H
  -48.9457   30.9677   16.2148   C
  -10.1373  -32.8568    2.2566   N
   36.4626   34.6424   -3.0830   C
   47.8580  -13.5510  -21.6619   S
   18.5101   40.0818   36.7374   C
   31.6216  -11.2140  -16.5548   S
   35.2059   -0.8555  -29.1543   N
    0.9546  -13.2411   48.4586   S
  -28.5898   -0.3917   -2.5430   S
    4.3913  -47.2532   44.1861   H
   42.3255   27.5693    6.3244   C
  -37.7808   38.2504   -9.9997   S
   -3.0354   -4.5099   21.7951   N
  -18.0773   47.9680   19.1965   H
   42.3502   15.6807  -35.8597   H
    2.0244   15.1187   48.8403   S
  -18.2511   -5.3913   -7.2055   C
  -21.1679  -26.0676   18.1778   H
   37.1725   42.4062   16.1849   C
   13.0537  -36.7045   29.2652   O
  -27.7812   41.9405  -27.4142   N
  -32.2344   36.9211  -26.5192   H
  -32.7328   12.4341    9.8576   H
  -44.5544   13.7027  -49.2563   N
  -25.6193    6.8466   14.1423   S
  -46.4586   25.6034   47.0700   N
  -47.3525   19.0587   42.8841   O
   31.2438   24.1464  -46.1856   H
   22.4178  -12.3151  -45.9793   N
  -31.1771   22.5654  -15.6025   O
   -6.8186  -15.3358   -2.8812   S
   -4.2105  -10.9789  -44.4916   O
  -32.0556   18.6157  -44.2004   H
   28.6630  -16.9670   36.7804   S
  -30.7118   40.5173  -21.1383   N
   35.9363   24.1302   -0.1361   S
   11.2737  -32.5984  -14.4408   C
  -22.7596  -41.4546   22.9608   O
  -16.2420   34.0767  -11.8095   N
  -17.6601   -5.2349   47.5283   N
    2.0514   17.1959   46.8656   H
  -33.8410   46.4909   48.8050   H
   37.3671  -14.0116  -45.1779   H
   -9.1762  -46.8877  -19.3049   S
   28.2981   28.8124   11.7364   N
  -20.7312   -6.3543    5.2471   C
  -31.9472    9.4052   49.3710   S
   34.6474   49.7406    9.4816   S
  -17.9953  -18.3861   40.4291   H
  -21.5725   12.7764   20.7883   S
  -49.6671    6.0663   38.2511   C
   11.4615   -8.2638    9.4345   C
  -49.2978   -7.4339  -35.4176   N
   30.4857  -49.5761  -14.0791   N
M  END
$$$$
