Generated Ligand
Programmatically generated
Comment line
100  0  0  0  0  0            999 V2000
   24.5182  -36.8017   -5.0410   O
   24.6472  -16.9444    6.5780   H
   28.2855   42.5859  -29.1338   O
   -2.9613   34.9654   49.8153   N
  -19.6078   -0.9673   -5.3194   C
   37.7537  -36.9362   34.0077   N
   31.3421   39.8713  -45.1480   C
  -36.1370  -27.8172   35.4437   H
  -29.4614    4.0196   37.3228   S
  -20.2224   36.2944   19.7879   C
  -21.6870  -27.2061   27.0254   C
   16.6687  -35.5538   31.6998   S
   35.9898   26.5149   30.0477   N
   28.0544  -34.2343  -45.1075   S
  -24.2178   43.4549   42.5735   C
  -27.1983   35.7969   47.1608   H
    2.0084  -10.6469  -17.3780   S
   12.3882  -25.5965  -33.7251   S
    6.8854   23.3737  -37.1463   O
   44.9669  -10.6291   28.9916   C
    6.8692  -14.2050   31.0796   N
   29.1691  -46.8712    1.2272   C
   19.2859    7.4561   19.2442   N
    0.5964   42.7477   28.5037   O
   13.6229  -49.1754  -45.0764   S
  -21.7188   42.1297  -14.4066   C
   20.3509    2.3152  -47.7165   H
   25.0281   45.1565  -35.0025   S
  -21.3715   -8.7934   16.1106   S
    2.3992    1.1369  -10.1498   N
    2.2429   -6.2796  -42.4516   C
   38.7425   31.9113  -18.8249   H
  -46.1616  -35.8755   -1.4293   N
   36.1907  -31.3249  -19.8935   H
   -2.0815   -8.9449  -17.4352   S
    3.7909    0.2334   40.4566   S
  -18.2716   33.8478   26.3962   N
   28.4891   22.7464   41.7237   S
   30.4596   -5.1661  -44.7938   S
  -47.6278   25.7421  -48.5231   C
   34.6547  -28.2388  -28.1245   C
  -31.2295  -30.0523   12.8332   N
  -30.8140   -6.7773   -4.8767   C
   -2.4864    3.9840   47.9381   C
   40.3114  -22.3705  -39.0352   N
  -33.6136   -9.2158  -31.1061   N
   17.5897   -6.8190   42.1775   O
  -43.3612   14.7278   18.5941   H
    8.2302  -33.0689  -22.0893   O
    7.7977  -35.3296   46.7442   O
   45.2424   12.9150   -1.5528   C
   49.6998   48.4372  -40.7492   S
   13.8997   43.6066   43.2259   H
   27.8807   12.6408  -28.6861   N
   -8.0019   -6.2123   31.3326   H
   18.9706   34.7622   -2.4385   O
   -8.2659   29.7571    0.3427   N
   41.2686   36.0224   -5.2011   S
   -8.3374   36.2545    4.0489   H
  -25.2954   40.9861   24.6590   C
   28.3378   40.5241  -39.9432   N
   40.7083   41.0027   -5.0688   S
  -36.1012   23.0047   18.7465   N
  -18.7246   32.3995  -47.7234   O
   -9.9808   -0.0685   21.4329   S
   17.8485   16.5220   44.2382   N
   41.2544   13.0761   32.5080   N
   12.8275  -45.6455   22.3995   S
  -38.6710   32.1625   17.5991   N
  -26.6838   29.4038  -14.5969   C
   35.9685   29.1117    0.4701   N
  -29.9924   43.6030  -12.7604   O
   12.9888  -46.9249  -42.5612   C
  -30.8139   15.4943  -24.7154   O
   19.9548  -17.7638    4.6711   H
  -26.4871   -7.8811   -4.4248   N
  -18.3196   39.2206  -39.4885   S
  -15.5986   14.0948  -16.0048   H
  -10.0012   48.5313   27.1663   S
    5.5452   21.4761  -35.0218   C
   23.4822   16.1360  -47.6517   N
  -10.1773  -41.0054  -43.5142   C
    4.2126  -48.6952  -31.3453   N
   14.1069  -34.6222   28.8719   H
   -8.7293    5.6540   22.6598   O
   -2.7481   29.8962  -48.9976   S
   30.9381   35.5831  -39.1818   S
  -14.5226  -31.6222  -30.9432   S
   44.3223  -43.2560   10.5803   C
   17.2293   36.8123  -49.8110   O
   33.5751   26.6374  -33.9715   O
   47.2927  -49.7534   48.0581   N
  -14.8188    3.8020  -33.8528   H
   -3.1627   25.2116   45.0124   N
  -19.2042   42.5347   20.0703   S
   44.8597  -42.3809   20.9798   O
   12.3097  -19.2407   -6.2909   N
   16.0738   -0.0693   22.8637   S
   -1.2123  -21.0046   -2.7966   H
   39.9456  -42.3001  -44.5395   N
M  END
$$$$
