Generated Ligand
Programmatically generated
Comment line
100  0  0  0  0  0            999 V2000
  -44.5700    6.6912   12.5176   S
   22.7818   26.9472   40.6482   H
   31.5392    3.8693  -49.6336   C
  -43.4340   43.6345  -48.0486   C
  -24.6195   -4.0097  -49.6249   H
  -44.4916  -24.6943   28.4426   N
    7.6804   -8.4658   16.7528   C
   46.9423  -16.9855   33.7834   N
  -28.8280   48.7077   -0.4362   S
   34.5585   42.3141  -46.3563   S
  -37.2140   -4.0832  -26.2486   H
  -23.9961   27.0124   34.7559   H
  -49.4720   42.6709  -45.5364   S
   34.9434  -15.7712   -1.1539   O
  -48.9683    0.2141   44.3374   H
   42.6212  -17.6682  -34.4767   H
   -7.7324   20.9913   -8.3560   O
   29.3269  -30.3235   19.2543   O
   41.1430  -10.2649   47.5527   S
    1.6718  -39.6062    0.1825   C
   27.8725  -49.9463  -10.2034   C
    7.3690   40.3897   16.8161   C
  -23.5432  -20.2787  -47.4371   S
  -37.0225    7.9368   11.5387   S
  -16.9176   43.3614   -0.7701   H
  -16.8858    8.7142    5.0837   C
    0.7363    3.9481   35.8501   S
  -11.5659   19.8654   -5.3434   H
  -47.5126  -43.4752  -24.6356   S
  -49.2471   -4.7742   -1.7126   N
  -18.0941   31.9691  -39.7383   O
   -0.8991  -39.5234   47.0757   O
   49.2326  -37.7413  -26.1592   H
   46.3375   33.3180   15.4845   S
   49.7297  -14.1946   17.3593   O
    3.9722   44.4034  -20.7178   C
  -12.1595  -32.0552   42.0982   C
  -18.2342   38.1075   49.7928   O
   15.7724  -38.1491   20.3147   H
  -32.7021   -0.3983   19.7720   O
  -16.7502   15.1729   21.2735   C
  -32.8487   -5.3721   25.4635   N
   20.3267   16.5715  -34.2072   C
   13.3604    9.2879   24.0841   S
    0.7813   31.6402  -12.6010   S
  -22.8147   41.7475   -1.9733   O
   -9.6024    3.2517  -14.5200   S
   44.8774    3.6009  -38.7209   H
   49.5131  -32.6646  -36.8198   S
   34.5925   23.9870   34.1542   O
   27.1837   46.8545   37.4839   O
    8.2768  -43.3685   43.2101   O
   -9.2047  -31.5012   39.3306   N
  -32.8974  -24.8635   45.0052   C
  -20.2495  -45.8356   14.9455   O
   41.9193   46.1310  -48.0951   C
   18.4031   29.4995  -15.1878   S
  -16.0164   21.2817   38.5193   N
  -41.7446  -25.9970   30.0923   O
   30.9820   19.2432   29.6035   C
   34.7617    4.4977  -41.3574   O
   17.1953   25.2138   20.8483   N
    1.8798   28.5341  -18.8747   N
  -36.1616   45.6242  -21.2062   S
   -0.0303   -0.2851  -41.2413   C
   -2.9908   31.4824   31.7372   N
  -26.0692   39.8053   24.2233   C
   -0.0559   20.4961   -2.1789   C
  -11.0809  -29.1341   31.7899   H
    3.3821   20.8158   -3.2631   S
  -26.1240   36.7474   44.3177   O
   11.4955   11.3789  -24.6949   O
  -40.1044  -41.8086   21.9332   C
  -23.1673   49.8872    5.0786   C
  -25.9837   41.4495   -5.5837   S
   43.1065   29.1165   44.3040   H
  -43.8721    1.2263    1.4072   O
   -6.9223  -18.0535   28.9803   H
    6.2696  -43.8014   10.5175   O
   19.8920  -16.4366  -16.6595   S
   42.9332   40.4214   16.8866   H
    3.5362   32.2518    5.6669   O
   43.9379   34.5395    4.0481   O
  -41.6767   30.4799   19.9360   C
   28.3309  -35.3588   38.7508   N
    9.4484   -6.0955    0.3982   H
   27.0829   30.2419  -29.4070   S
   -0.3596   -8.5491  -35.8598   O
   12.0481  -11.0117   24.5626   O
   48.0059  -17.5656   24.3646   H
   -5.7734  -25.3145   45.3835   H
   14.7851   14.2274   10.4210   C
   31.3652   -9.1499  -19.2631   S
  -22.3421   45.5511  -33.3076   O
   49.0717   22.5705   31.0340   O
   36.8995   48.9931   39.6471   C
   -5.2018   32.6923  -29.9654   H
   38.1730   30.2395   26.3434   H
  -23.5348    9.6580   18.2346   N
  -23.0896   -8.0048    6.3476   O
M  END
$$$$
