Generated Ligand
Programmatically generated
Comment line
100  0  0  0  0  0            999 V2000
   40.1284   45.7438   45.9111   S
   48.8607  -14.1296  -36.1274   O
   37.1873  -27.6058  -13.6206   N
  -33.0056  -38.2527   41.9702   N
  -34.7359   25.2232   24.5528   S
  -16.9077   -0.5487  -38.3251   O
  -34.4368  -20.4569    4.6138   H
   39.3292  -34.3605  -30.2689   N
  -43.6974   15.2487  -11.6069   O
   40.5947   28.1117    5.2358   H
  -14.0163    3.3560   35.8048   C
  -15.9574   16.4659  -48.5048   C
   -7.2803  -46.1206    5.0705   S
  -18.0106  -19.3838    8.2888   S
   -1.2194   29.5229   24.7265   N
  -32.5914   19.2493  -15.8549   S
   39.8997  -39.5676   33.7274   C
  -24.1172  -25.0792  -21.8490   C
  -21.2667   15.3198  -35.6223   O
   16.9292   11.3313   47.7361   C
   38.5034   18.0460   12.9874   O
   25.6081   -3.7553  -21.6922   C
  -13.3784  -45.1461   34.2207   O
   23.8926  -20.2565    0.0860   N
  -49.4973  -31.6553   15.1173   H
  -11.5649   48.9389    1.3079   H
    3.2749   21.4914   18.4708   O
   36.6816   -7.8313  -25.1936   S
   32.5679  -13.8905  -36.3265   S
  -37.7959   13.1625  -20.8819   S
   40.5012   48.9344  -44.3048   C
  -45.2309   47.9260   49.0374   O
   20.3374  -21.9836    2.5975   H
   33.0474  -22.1918  -44.4143   H
   36.9314   40.1808  -41.9343   H
   15.0685  -41.0182  -47.0437   H
  -32.3004   29.2491   23.2541   C
  -17.2967   -0.3974   31.0182   H
   -6.8226    7.4860  -24.2220   S
   -8.8119   46.4814  -49.3291   H
  -46.7737   17.6962  -17.7654   S
   33.5553  -47.8177  -12.0532   O
   -7.0723   -7.3106   17.8827   N
   -6.0550  -19.2926   13.4188   C
   38.7183   22.3479  -29.7442   S
  -25.0873  -41.8416  -39.8761   O
   33.6947  -27.9527   29.4706   H
   19.8731    1.3024  -44.9185   S
  -19.4110  -24.3687   27.8931   C
   -8.3551   28.3057   37.4341   S
  -34.9332  -15.6785  -31.3842   N
   25.7074   -5.3659   -1.9394   H
  -10.5873  -17.0508  -46.9708   N
  -21.9115   29.4183   21.1044   N
   46.3639  -42.9458   42.1591   H
  -44.2119   13.5000   29.5347   H
  -11.4584   17.2413  -49.9035   H
    9.8024  -28.7732  -18.1900   C
   22.4213  -36.4528   49.1332   N
   15.5667  -36.7730   23.8375   H
   24.0398  -42.7215  -36.5621   H
  -44.4241  -11.9796   34.0102   S
  -12.8806  -30.9820   10.9016   N
  -24.3569  -14.7701  -18.1177   C
   15.9790  -37.5085   31.6049   S
  -12.0726   43.4510  -32.3854   N
    9.4457  -38.5705   20.1089   H
  -48.0001   29.7921   -8.0176   O
  -37.3951   37.1135   45.3734   C
  -40.3013   10.1325   45.8558   C
   -1.3898   47.5020  -22.3217   N
   44.0603    1.5016  -49.4277   O
  -42.4828  -32.4615  -31.9021   N
  -40.3736   47.3528    8.7932   H
  -16.2191   37.2476   40.7706   O
  -14.6079  -44.8684   28.0632   S
  -13.6186  -19.8234  -38.8137   C
   47.1375   15.2117  -45.6313   O
    5.1800   10.3287  -27.9618   H
  -26.0970   24.1659   28.7892   O
  -29.4161  -17.2400    1.4254   O
   -6.5163  -35.8439  -17.3965   H
   13.3455  -47.6060  -45.0958   H
   25.3396   38.5509  -34.6772   H
   -7.7131   31.0414  -19.9200   N
   -9.9826   23.8311   -8.7891   S
  -31.9986  -48.2297   40.0311   C
    2.6412  -33.1260  -30.4229   N
  -41.4866   -4.3968  -46.2610   O
    4.9215  -31.7559   30.5527   N
  -41.5685   13.3729  -21.6211   S
  -30.3409  -43.6741   47.1305   C
   13.4937   -3.9360   30.5154   N
  -18.0450  -44.9797  -47.1076   N
    4.3398  -44.3464  -18.3419   H
   25.1100  -11.3797  -42.7989   H
    0.4320    3.0222  -36.1170   S
  -23.2887   43.5549  -32.8211   H
  -12.1870  -33.0989   40.4922   C
  -43.5009   31.2260   36.8578   C
M  END
$$$$
