Generated Ligand
Programmatically generated
Comment line
100  0  0  0  0  0            999 V2000
   47.4554   33.4594  -29.4838   S
  -23.0890  -29.5664  -29.1433   N
   43.1643   -7.4204  -10.8889   S
   32.0827   16.8204    5.7820   H
   35.1594  -28.2614  -27.4183   H
   31.0611    6.2214   34.6510   H
   18.9778  -15.7620  -32.2647   O
   -9.8747   -9.8660    7.8630   N
   26.0136  -14.2044   37.4643   S
  -49.6188   40.2955   15.6419   O
  -40.2455  -27.5996   -4.3784   H
  -34.7788   -6.0610  -25.0004   N
  -41.5820  -18.8900  -14.8239   H
   41.9729   -9.8826  -16.5554   H
   -3.2436    1.2549    7.0884   H
   17.1937    8.6958   16.1755   H
   12.0839   33.1735   -5.4187   S
   -8.7587   22.6388   -7.4494   H
  -13.2902   32.9625    9.3474   S
  -41.6161   13.2137   23.0805   H
  -15.2269   25.1361   19.3346   N
   25.9391   47.6866  -17.4295   S
  -43.7946   42.6829  -49.9368   S
  -24.8276  -32.8386    2.3934   C
  -32.9023  -31.4816   28.4029   N
  -17.8883   26.8719   44.2211   N
   49.0686   37.2687  -38.4017   H
   10.1785   10.3723  -41.7239   H
  -33.0372   11.9278  -17.0580   N
    5.4964  -36.2238  -47.0229   C
  -22.3344   37.8783   17.3976   O
   -7.3609  -20.2709    6.3803   O
   42.7102    8.7450   23.0596   O
  -18.6392  -13.4440  -39.7667   O
   -0.6987   11.0702  -22.1191   C
   22.0140  -18.5119    9.5091   C
  -29.5797   13.3867  -44.3492   N
   31.3753   15.4409   47.8948   S
  -45.4113   33.3014   45.2821   N
   38.3013  -34.2174   38.6384   H
   21.5293   11.0999  -30.0491   O
   20.8887    2.0212   25.2021   H
   49.4848    4.5740  -32.3734   H
  -24.8573  -41.9819  -24.3806   N
   13.7598   36.8130  -30.1247   S
   42.0829   49.2522    6.3127   S
  -36.8538   -1.5319  -42.6923   N
    4.8053  -31.9268  -34.1661   H
  -14.9707   18.6484   -4.7844   S
   12.4516   -0.0728   16.0283   C
    2.0117   47.8438    5.5684   H
   48.6556  -15.5367  -26.2355   C
  -31.4064   14.1862    3.3005   C
    6.8271  -24.6645   12.6656   H
   43.2892   -1.1337  -48.5066   S
   34.6648  -26.8908   49.3780   C
   -3.1877   14.9962   49.4821   O
   24.6409   -7.0385   36.9300   N
  -23.2085  -11.4520   12.4275   N
  -24.8669   14.8010  -21.5320   N
   -6.3820  -18.9303    3.7103   O
   38.2657   26.9009   46.0107   S
   38.3244  -39.3584  -24.5988   N
  -21.4993  -28.5253  -36.7230   C
   47.8049   34.7921   -9.5825   N
  -48.3621  -22.8765   16.1386   O
  -21.2143   43.6253  -43.5869   H
  -24.8607  -22.6999   39.5994   N
   -2.2371  -44.1370  -37.3070   O
   -9.1988   17.5443  -37.1907   N
   -8.1173  -35.5382  -36.7080   C
    2.1951   41.7285   25.4540   C
   35.3021   -4.7725   23.1345   O
   45.6878   36.1096  -28.6361   O
  -10.0324  -16.8755  -32.8315   H
  -26.3063   49.0796  -32.8540   S
    1.7972   -0.0951   26.6956   C
   15.2627    8.7426   -8.2854   N
   28.2530   34.9326   35.3317   H
  -21.3474   24.8524  -21.2682   H
  -20.0895   37.7779   10.8291   C
  -23.9435  -41.1078   41.5680   O
  -46.3118  -14.9820  -12.6029   H
   40.4254   31.7723   -4.9753   O
    4.4495   19.3532   -0.4359   O
  -30.7056    2.1446  -30.4516   C
   32.7802  -43.1864    1.1192   O
   29.2618   17.2954  -23.5290   N
   -4.3057  -38.7554    6.2818   O
   -9.0452  -31.5188   -2.3280   H
   46.8247   12.1987   44.6861   S
   12.2563  -17.6204  -13.3861   O
   19.8896   30.6054  -44.7399   S
   10.5876   14.3311   37.3620   N
   -6.7091  -39.6254   -2.2664   S
  -48.0747  -40.5455  -12.0023   C
   20.2447  -41.0263   19.5336   C
   24.7579  -22.6784   -0.3214   C
   15.6895  -47.8397  -12.4129   S
  -19.5537   -6.5038  -31.6387   S
M  END
$$$$
