Generated Ligand
Programmatically generated
Comment line
100  0  0  0  0  0            999 V2000
  -47.2742   10.9197   37.4063   S
  -25.4563  -33.0422  -44.5382   N
   43.0098   10.2283  -29.9772   S
   12.1459   47.4802  -40.7281   O
   28.2469  -41.8882   32.1469   H
    5.3613  -29.4775  -42.2922   N
  -47.5608  -25.4946   22.3556   H
  -21.0863  -20.9706  -19.6615   C
   48.3408   16.3217  -13.3427   C
   -1.9921    8.1971   35.0708   S
    7.4467  -32.3244    8.7460   H
  -27.9494    2.9518   46.7167   H
   47.9321   43.1389   25.4119   S
  -19.2610   26.9122   22.6515   H
  -18.9997  -24.1790  -40.6894   C
   36.4038   -2.9215   11.1500   O
   -2.1868  -46.1263   18.5852   O
  -44.7597  -38.0997  -10.7676   C
    2.6863   43.3089   -3.2911   N
   -7.3166   33.8784  -40.1879   N
   48.1515   41.7416  -36.1016   C
   48.0013  -29.1369   11.7067   H
    9.5497   37.9740    9.0753   C
    9.7400  -11.7123  -37.4936   C
   25.7709   12.2929  -25.0075   S
  -17.7038   19.3686  -40.0425   H
   -2.3724  -39.6972  -43.4874   N
   -3.2014   19.7327  -43.6702   S
   43.8555   21.5375  -32.1690   O
  -38.3035  -17.1004   48.2008   H
   39.8722  -38.2484  -26.6601   S
   49.3306  -14.5628  -31.8183   H
  -37.4950  -14.3919   44.4676   O
   24.5481   33.5006  -22.7338   N
  -39.6887  -34.3878   37.6168   C
  -10.3218   25.4717    8.9625   C
  -20.8529  -20.4206    8.4499   O
   39.5572  -10.9928  -27.0859   S
   24.9903    4.3462  -31.3364   S
   13.9604   19.6375   15.3660   H
   36.0894   48.6836  -45.7116   H
   31.8765   -5.5221  -10.0113   N
    7.1740   33.0983  -13.7450   C
   19.4299  -10.3014   18.2722   H
   -4.5655   32.5030    8.9231   C
   18.4931  -30.0074  -39.4474   O
  -39.5342   36.5539   42.7576   H
   10.5884   31.5634  -46.8816   H
   23.6507  -34.4048  -12.8509   S
   44.7106  -34.4128  -10.7387   H
   -7.7733    0.4416  -46.9257   O
   34.9620   17.7799   28.4136   S
   44.1336   -5.1153  -47.1405   H
   21.1931  -40.7211   42.4392   C
   38.4242    8.2409   36.1807   H
  -45.5954   21.6122  -36.9043   H
  -26.9990   26.3015    0.5270   H
  -49.6436  -43.7027  -48.3012   C
   33.3052   15.5247   -0.5737   O
    6.6505   11.2794  -15.7608   H
   15.4682  -47.3458  -40.9679   H
   44.8361  -11.5188   37.0000   N
  -28.0814   -3.0004   -1.2417   O
  -22.2970   17.3118   -0.7582   S
   42.9577   20.5996  -17.1523   N
   32.6937  -16.2875  -23.2763   N
  -33.2826    9.9747  -31.3329   S
  -49.4704   13.8841   -6.8357   N
   16.6118  -45.9791  -25.3551   N
  -27.9521   -1.2658    9.4891   H
   41.6733    5.0315  -13.7049   N
  -27.5096   23.9954  -42.6735   C
   44.7407   13.9471    6.6208   S
   23.6931   45.5738   14.1388   S
   -3.5525    9.0167  -45.5824   N
   26.8463  -40.7534    8.3519   S
  -42.8264   -0.2230  -43.7463   H
   12.6157  -27.4121  -20.6473   S
   31.2225  -34.1740   23.6981   N
    1.2170   -8.6132   31.5693   H
  -19.6732    6.6562   30.3647   N
   11.3997  -26.2546    3.5144   C
   33.8912  -32.8828   23.5660   S
   47.4457  -36.4171   40.6413   C
  -48.3931   11.4775   18.5564   N
   22.0223   12.0138   -3.8851   O
   47.2707   13.9521  -33.9133   H
  -12.8162  -10.6569   19.3469   H
   27.1809   38.4076  -26.4603   O
   38.5614   -2.8256    1.1620   N
  -47.7097  -25.3216   23.6972   O
   44.4513  -45.7101  -44.3934   C
   15.0307   31.1268  -26.7756   S
    6.6964  -31.2494  -40.3797   O
   33.2216   34.2486  -20.9641   H
   -3.7852    5.5831  -29.9206   N
  -23.2406  -39.6686   33.6091   C
   40.6248  -25.5866  -28.3580   H
   15.9615  -41.9363   39.6428   C
    9.0062  -47.9831   30.1056   O
M  END
$$$$
