Generated Ligand
Programmatically generated
Comment line
100  0  0  0  0  0            999 V2000
   -7.2711   14.2342  -49.5517   N
  -44.2251  -18.1105  -20.0137   O
  -48.0758   43.0355  -27.3729   S
  -22.0371  -14.0621  -15.5149   H
   47.2128  -43.4788  -26.5659   N
  -38.3170   -8.5020    0.8610   S
   35.8098   17.3472  -18.3600   N
  -35.7381   -2.6591  -47.8920   O
   30.6846  -35.5331   21.4870   S
   -1.3360   -4.6568  -49.0790   H
    8.9650   -0.2618   10.5512   O
  -26.5778  -25.1074   16.5840   C
  -25.0498   33.6438    2.7055   S
    4.4002   37.9074  -13.5407   N
   29.3971   34.4456  -49.4306   N
   21.3197  -27.6999  -44.7295   N
   29.4399  -38.5767   49.6082   N
   28.6808  -13.6467   11.1721   O
  -47.9338  -44.8286    5.7292   O
  -29.0118   40.4516   48.7627   H
  -43.7151   40.3572   38.4031   C
  -18.6721   22.0725  -33.6600   N
   37.1916   -2.1807   39.8648   H
  -34.0087  -36.4811    0.4665   O
   11.8772  -30.7943  -10.9261   H
    3.6119    3.2653    9.9278   S
   -8.9910   29.5080  -29.2009   O
    3.8749  -44.7102   15.9223   S
  -21.6382  -31.8012   22.9342   O
   36.4352   14.7656   16.4071   N
    8.0752  -28.2728   10.1455   O
    8.1976   -5.6474    5.1989   S
   -3.5614   27.2848   49.6564   O
   43.0842   48.9462   36.2517   C
  -23.3643    1.9181  -38.9918   N
   23.1749   47.5604  -11.5539   N
   -7.7062   28.0728   48.2085   C
   49.0052  -21.2423  -26.7266   S
   10.1240  -46.8308  -15.9512   C
    0.6731   31.7695   31.5129   S
  -42.0164   18.9950  -18.4058   S
   26.3324  -20.3578   -4.4633   N
  -40.1938   17.7521  -22.9722   O
   -8.9296   18.3829  -35.2481   N
   39.6546  -42.8598    3.8366   O
   26.0729    7.9992  -43.9692   H
   -2.2393   -3.9543  -40.0465   N
  -31.4484  -41.8980   14.4385   H
   30.2369  -11.9613   18.0612   H
   10.9475    5.5489   15.6001   H
  -44.3346  -46.0834    5.1597   O
  -16.5368   -7.0153  -34.5866   S
    5.6632  -13.5888  -41.0468   S
  -29.6519   17.8014   31.0606   N
  -34.8126  -28.7151   17.2577   C
  -45.0701   -9.3336   -6.7445   C
  -19.4011   43.9575  -22.9573   S
  -10.0599   -8.6709   29.7975   O
  -17.2814  -10.7634   28.7160   H
   13.2599   44.2921   -4.2262   H
   38.2195  -29.0281  -40.6444   H
  -22.2363  -40.0530   -2.4087   C
  -13.2037  -44.7915   28.0411   C
  -44.2871   26.6607   30.6319   C
   13.5514   -1.2059   -5.7217   S
  -40.1109    4.2636   -7.5296   C
   19.2413   40.2392  -20.1175   O
  -30.9784  -21.7670   17.1160   H
  -37.8906   43.1702   21.5056   S
   49.0235   35.0057  -15.8256   H
   -0.5263  -32.5187    3.0766   C
   33.4878   29.9614   42.5492   C
  -39.4567   29.1882   16.7525   O
  -39.8598   -1.5077    4.0358   S
    7.8872  -23.1112   31.2068   N
  -11.1942   -7.7907  -27.0447   S
  -14.2791  -21.6891  -35.9580   O
    0.7144   28.1798   16.3639   H
    1.6291   16.2046    7.1007   O
  -31.1980  -16.2397  -41.7987   C
  -19.7192  -17.8264   29.4104   S
  -36.4379  -32.5085   47.4095   C
   22.9675   17.5824  -11.9187   S
   42.7525   43.8090    6.1961   S
   37.3969  -11.9761   -2.0199   C
  -16.5854  -44.8582    5.6621   O
  -15.6153  -10.6789   18.2337   S
  -44.0309   19.8648  -27.5998   S
   47.9555  -47.6169  -23.8150   H
   47.6104   11.5949  -11.8030   S
  -23.9738   30.7011   29.0260   N
  -40.3407  -11.8178  -28.2829   S
   31.5228   15.6936  -36.2638   O
   32.6265  -30.6079   28.4242   H
   -4.1934    5.8412   48.2553   O
  -22.5158   46.5483   31.1775   N
   39.1556   -7.9504  -48.4597   S
  -41.6796   13.7615    5.4320   N
   33.9905  -37.3623   49.4482   H
  -19.0616  -17.1719   27.9697   O
M  END
$$$$
