Generated Ligand
Programmatically generated
Comment line
100  0  0  0  0  0            999 V2000
    4.4867   -4.6284  -18.5955   C
   35.5734   -4.1198   46.1697   C
   36.2126  -23.5847   23.3488   N
    9.2587  -33.5156   16.9405   O
   -7.0079   -9.2738  -36.1208   C
  -13.2356  -21.6675  -31.4906   H
   14.8359   43.0250   18.9464   C
   -1.3538   33.8659  -25.2652   C
   17.7074   -3.7965  -45.9974   S
   29.9462   -4.8246  -26.8941   N
   29.0144    4.4531  -32.2643   O
  -40.2320  -33.0460   -5.1336   H
   48.9629  -20.9941   29.9937   O
   15.4883    2.1469   36.8182   N
   27.3157   19.9380  -13.1217   C
  -15.5941  -46.9476  -43.2237   H
   -2.3358   12.5957    9.4853   H
    1.0118   30.2159  -17.3342   N
    7.0233    0.6698   47.4236   O
   19.5117    7.5252   23.0344   C
  -24.6364  -12.3810  -46.5940   H
  -25.7368  -21.6125  -43.4865   C
  -28.2224  -47.9773    1.3749   H
   44.8387  -47.8349    5.4885   H
   -9.8794   44.8089   10.1715   C
  -25.2567   19.9627   10.8768   N
   16.2568  -26.0415  -33.6405   H
   34.7630   -4.2131    6.2848   H
  -45.9995   19.6326  -19.9494   S
   20.7857  -10.1239  -14.4169   N
   24.8455  -34.0375   42.7798   O
   26.0005    7.0178   10.5766   C
  -25.3674  -17.7500   -0.1914   N
   32.7662   16.2260  -44.8612   C
  -35.8469   -5.8321   -6.3819   C
  -36.1378  -45.0490    8.7346   O
  -25.6978    5.3019   24.6926   C
   14.0934   39.2970   26.7294   C
   24.7722   23.5907  -12.8401   O
  -39.3946   17.3489   -9.5290   H
   -8.1087   -8.8984   -8.7947   N
   32.3407  -27.0534   47.3432   O
   -7.6411   45.0936  -47.1931   H
   47.3871   -1.9815   -4.2429   N
  -31.5656  -24.5862  -16.0286   O
  -36.2849  -13.5986   33.6200   H
   17.6968   27.6284    6.3760   S
  -30.5294   14.0882   -3.7450   C
   29.1486   39.3451   10.9228   N
   14.5319   29.9234    3.9615   O
   23.1520   34.3951   -5.0983   O
  -21.2184   -6.1696   10.3575   H
  -16.5002   -8.4661   40.6327   S
  -41.8694   22.7459  -32.0616   N
   43.5192   41.5981  -37.6073   N
   31.3371  -22.7256   16.7754   C
  -10.5810  -45.1689   -6.3029   H
   28.0812   31.8102  -42.2000   C
  -36.3511  -22.4802   43.5797   O
   11.3369  -33.4692   43.1242   N
   14.0363   34.8553   37.2821   N
   -6.2681  -41.9351   34.9045   O
   46.8433   15.6499  -34.5509   O
   25.0250   -2.1000   -3.0294   S
    0.0532  -20.4733   27.9564   N
   13.4945    9.9177  -10.4733   S
  -44.2313  -18.8250   24.4570   C
  -10.1908   16.7978   24.0051   C
   15.4192    0.4014   -6.5813   H
  -24.7606   41.6638  -31.8731   S
  -30.4654   -1.5263   -4.0896   H
  -45.6499  -22.3783  -22.2412   S
   46.7693  -34.6651   40.6026   O
   49.4382    6.6015   35.3748   S
  -26.1120   20.3649  -15.4637   C
  -43.7812   18.7088   38.0395   O
  -23.0710  -17.8356  -35.7111   S
   -1.1311  -26.8688  -33.4113   N
   36.0920  -39.8092   29.0157   H
    6.9586   26.3303  -25.5474   S
  -13.7779   49.4492  -36.1960   O
   48.4539  -14.2319   10.5694   C
  -14.6853  -17.5138  -45.3361   S
  -20.4266   28.9420  -31.5381   N
   43.1085   29.4150   12.3796   N
   21.2569  -46.1696  -45.6530   N
  -34.5647   42.0138   12.2457   O
    3.7085   31.2040   -7.9044   O
  -40.9274    9.3928  -45.1188   N
  -10.7060   -0.2665   31.3085   S
  -29.1549   23.4664   16.4689   H
   45.2840  -22.7906   -3.0385   O
    1.4683  -13.4777  -42.2355   C
   15.9643   46.1173  -14.8443   N
   -0.1620  -49.9702  -31.6702   C
   25.3830  -43.8610   40.7912   O
   -3.0656   26.2333   23.7126   N
  -43.3205    4.6671  -47.0611   S
   20.1690   12.8302    3.2155   C
   28.3568   25.7260   46.5577   O
M  END
$$$$
