Generated Ligand
Programmatically generated
Comment line
100  0  0  0  0  0            999 V2000
   -3.4923   -3.5333   46.3215   S
   -9.5785   -6.6082   45.8415   H
  -32.7872  -21.8967  -36.8677   N
  -43.8805  -21.2503   42.7710   N
   16.7098   49.3079  -15.5180   N
   47.0167   46.8729   42.8495   H
   20.6123  -39.4395  -44.1117   H
   38.0188  -41.5555  -17.9563   N
    8.4227   -0.6877  -16.5531   C
   16.9438   15.6817  -25.7705   C
   -3.0254    5.3180   34.2369   S
   21.3534  -41.9870    3.7887   C
   49.6090   13.0260  -48.7200   C
   34.6555  -40.2856  -42.7452   O
   -1.0028    5.2970   44.4151   C
    4.4576  -19.8609  -11.6612   S
   45.3739  -20.3819   -2.3400   H
   -6.0562   47.9759  -12.7533   S
   25.0011   41.0188  -22.6499   O
    5.8814   -0.5178  -41.2291   S
  -23.8875   -3.6712  -40.8543   C
   14.1438  -37.0417  -39.7809   O
  -20.6138  -33.8222  -49.9564   O
  -12.7486   24.4027  -31.5254   H
   27.8375  -14.2688    0.3600   H
   45.7656   48.9200  -26.4823   N
   11.7797  -33.7551   17.7171   C
  -21.4083  -47.5689  -40.2247   C
  -31.3508  -23.4410  -38.9093   N
  -16.6985   37.5209  -49.3003   H
   -0.9033  -34.8996  -43.6792   H
   38.2575  -35.1854  -40.2581   S
   22.8077   28.7513  -28.9544   H
   -2.9565  -24.0753   43.9938   S
  -40.5025  -46.5184   41.6719   O
   -3.9724  -27.8648   34.1721   N
    0.5756   18.1709  -30.0206   S
  -33.6000  -47.7588    4.7855   N
  -17.9790  -43.1967   33.7821   H
   38.3107   31.7505   32.9671   H
    4.6678  -46.5006   -1.9223   N
    1.2695  -18.8771    3.3493   O
   43.9821  -43.1417  -49.8380   O
    3.2871   38.3269   48.5775   S
   -7.7913  -29.2686   25.5557   H
  -32.3193   23.4445   -6.2429   H
  -43.3904   32.6118   24.4014   H
   10.1246  -12.2407  -33.5556   C
   -2.3316   22.0386   -8.5565   O
   10.8897   -5.7601   13.8901   C
   42.2700    2.5743  -49.4431   N
   32.7436  -10.7414  -34.7007   C
  -27.4936   -5.0216  -19.0952   S
  -23.0006    9.2031   24.1978   H
   -8.4963   42.0429   26.5877   N
   20.9008  -21.7653   15.3340   O
   35.4000  -16.0151   29.1786   C
   18.7590   12.1567   -5.3549   O
   18.9849    7.1459   21.1677   C
   15.7526  -39.7545   -5.4989   S
  -26.6657   -8.0213   40.3603   C
    6.8416   30.8037   40.2114   O
   44.5825   -9.4923  -22.1819   S
  -44.1724  -21.4449  -35.0348   S
   -4.3148   10.3668   12.1939   C
   13.8029  -12.3793  -26.4535   C
   25.2292  -26.9988   27.5292   C
  -29.2638   -8.7110   -3.3567   C
   11.6594    5.2597   30.9961   N
   35.9233   20.2613  -13.1768   H
   14.4716  -22.0415   30.4460   N
  -40.7352   38.3535  -21.5184   S
    7.3591  -46.8183  -45.8807   H
   33.6139   17.9622   44.6200   C
   -1.7527  -11.5408  -13.0199   N
    5.1822   24.9347  -16.9658   N
  -45.0367  -31.8302  -49.0757   N
   16.8209   32.8882   -1.6842   C
    5.8717  -32.5736  -12.8702   C
   30.7639  -37.2506   43.1859   H
  -18.7181  -44.0108   18.9654   O
  -20.2414   32.4011   28.3063   C
    3.5351   15.1373   12.2441   C
  -46.4546   47.3953   36.1048   O
  -29.3812   10.4965  -40.6404   H
  -21.8636   48.2850  -38.0255   C
   40.4452    6.6644  -45.9227   O
   -4.5783   27.4832   18.4680   H
  -15.2189  -24.3721    7.5067   C
  -13.1524   42.0344  -35.9840   O
   34.3203   33.9735   30.9836   N
   49.6231    4.9705  -37.8701   N
  -19.9809  -48.6711  -49.4036   H
   37.8291  -23.5707   18.3966   S
   24.6980  -48.4416   41.3117   S
    6.5036  -39.9513   24.1121   H
   41.2750  -28.5307  -21.7109   C
  -10.4784    4.8128   35.8445   C
   -5.5022  -17.5053    6.1379   O
  -19.9924   14.3702   38.3458   C
M  END
$$$$
