Generated Ligand
Programmatically generated
Comment line
100  0  0  0  0  0            999 V2000
  -41.6801   36.3112   37.6540   O
   49.4386  -18.6872  -34.1335   N
  -28.5997  -19.0999   49.0462   C
   45.5633  -15.9946   -7.7514   O
   19.6480  -41.7668  -31.9298   C
  -48.4630   46.0465  -18.4563   N
  -39.3711   41.8886   15.3972   N
   38.0090   24.6201  -24.7356   H
  -20.6086   47.6298  -48.9200   C
  -34.2821  -28.8321   46.6933   N
  -45.5369   11.6547   11.4436   O
  -31.1992   -9.3700  -28.9492   N
   26.1960   44.0025  -43.4884   S
    2.1161  -36.3701  -37.0755   O
   49.0970  -49.7685   35.3658   H
  -12.0265   -0.6437  -14.3276   S
   22.2664   -1.3500  -31.6496   H
   48.1764    2.2289   13.4550   C
   43.0114  -20.0329   13.8467   H
  -35.6446   31.1159    8.7282   N
   -3.4111  -27.9188   32.4616   N
  -12.4417  -11.6842    7.7688   H
   10.5114   34.7329   -4.6132   N
    4.4015   -7.5064  -33.7658   H
  -28.9633  -46.5587  -18.5969   O
  -24.6121   26.3209    3.9385   S
    6.0135   28.4208   27.7868   O
   42.6005   -1.0613   -9.6003   H
    4.8529  -23.1347  -40.8494   O
  -16.3604  -10.4905  -18.6235   C
   36.8907   46.0299   18.4978   S
   38.5176    8.5015   14.6900   S
   -1.6746   21.0948  -42.0110   H
   43.6486   -2.2811  -35.3858   O
  -48.9026   37.2486   36.6879   O
   25.5703   34.4389  -31.4335   C
   43.6005   15.3253   35.1824   H
   36.4699  -16.4213   -2.8710   C
  -32.7298   45.1068   29.6886   H
   48.4609   15.9516   -3.3374   H
   28.6946  -49.8147   -3.0241   N
   36.4683  -23.3251  -35.7061   O
  -14.7788   19.0508  -26.3226   O
  -45.8228   20.9805  -21.8353   O
   22.7009   -9.1963   26.4592   O
   24.1404   29.9233   -1.9625   N
  -30.7504  -43.9639   -9.8137   H
  -29.9034   26.0432    1.4166   C
  -20.4916   28.9079   -5.8625   N
    5.8533  -35.8803    8.1966   C
  -27.8540  -35.5243  -27.3922   H
   29.3881  -16.9066   15.1211   O
   20.6810    0.5800   35.5432   N
   33.4400    0.9511    8.1061   C
  -40.3658   25.0715    1.6499   H
  -37.6204   47.4646   35.2695   C
   14.1306   30.2897  -46.1059   O
    3.6065    5.4021    4.0803   S
  -13.4752  -31.4806   30.5694   C
  -21.5558   34.8423   18.0338   H
  -47.4533   -6.8748  -12.3558   S
   20.4393   49.6057  -45.8332   H
  -28.9039   28.0768    7.6733   O
   -9.4688  -27.6296  -34.0439   H
   18.7284   17.7708  -16.9949   H
   23.8443  -13.3785  -32.4468   N
  -34.8997  -17.1825   31.4107   N
   14.6372  -17.9874  -32.5044   O
   14.4982    9.2627   41.7868   H
   -2.3553   41.9043   49.0564   S
   -8.6442   35.6344   48.2633   S
  -18.1663   10.0859  -10.4310   O
   27.2825   26.4987   25.3105   N
   16.4797   19.8602  -18.9986   C
  -24.8313  -26.4530   36.1370   C
   -0.7080    9.7674   44.9159   O
  -43.5991    8.1973  -20.6436   C
   12.2696   -3.4482  -18.0462   C
   32.1439   30.7176   45.2741   C
  -30.8102   35.2501  -34.8357   S
   37.2498   10.8071  -33.5940   N
  -43.3145   31.3259   17.0737   C
   13.9741    6.3226   41.4568   C
   15.5288   33.0215   38.3221   N
  -45.9166   20.9408  -41.6958   C
   36.0636   43.7661   11.3084   S
   48.7080   17.0032  -49.4615   O
  -21.6049  -14.9876  -20.5954   S
  -47.4167  -29.2750  -18.0665   S
  -38.4165  -42.8707   28.2495   S
  -49.2503   23.7543   46.1374   S
  -24.1515   12.1318  -12.2008   O
   19.4708   26.4133  -21.0580   H
  -21.9515  -35.7320   15.8930   O
   10.2296   48.7541  -23.9591   C
   48.4359   -6.9887  -25.3615   H
  -35.0293  -44.2681   -3.7176   N
   24.2356    2.2903  -26.3687   C
   10.4218   28.6333  -40.5188   C
    1.7486  -22.2621   -7.7103   O
M  END
$$$$
