Generated Ligand
Programmatically generated
Comment line
100  0  0  0  0  0            999 V2000
  -31.2404  -38.6267  -38.8979   O
   13.3572   29.4342   20.1589   S
   49.5779  -12.4548   26.1968   N
  -15.6132  -46.9504  -11.0305   C
    2.6544    6.9611  -49.5905   H
    0.3172   -9.4971  -39.5929   S
  -19.7308   38.2025   16.9785   S
  -36.6474  -49.7770   43.5461   S
   -2.9133    6.5908  -24.0710   H
    1.9071   33.2345   49.6837   C
  -47.2928  -24.0359   41.7714   C
  -45.1365   46.3257   33.3326   H
   18.7266   -5.8481  -39.3685   C
  -38.4467   36.4594  -30.0701   S
  -14.1083  -45.4922  -42.6546   N
   32.0149  -28.2174   43.1853   S
   26.9600   28.9660   19.3079   S
   25.5187   15.8426  -47.7472   H
   40.0395  -21.1631  -26.3334   O
  -32.9749  -33.6057  -12.7237   S
   -7.7442   23.5583   26.5474   S
   20.2852   26.5233   28.3754   O
   17.3774  -17.0993   23.7658   O
   37.7788   27.5465   -6.8005   C
  -27.1479    8.4761   -9.9602   S
   41.1949  -36.0700   39.3101   C
  -18.4591  -22.9111   -8.6303   O
   32.1332   17.3013   40.7331   S
  -21.8485  -23.8182  -14.3833   H
  -12.5907    9.0910  -26.9910   C
   -2.5283   -1.7379  -38.4928   H
   22.3855    8.2748   21.0940   C
  -26.0862   -9.1999  -28.3086   C
   26.0541   48.4269   16.6710   H
   26.7613   20.0927   30.7483   N
   29.9054  -32.8323   49.9728   S
   18.2117  -37.5368  -47.9991   S
   27.5819  -44.2154  -30.7093   O
  -10.6970   -4.2537   37.9050   N
   19.1561   -8.7134  -40.2055   O
   15.7205   11.5465    1.2743   H
   21.4860  -38.7052   16.5487   S
  -47.3862   14.9427   -7.1408   H
  -22.8383   -4.1772    6.2091   S
    5.3815  -25.4103   24.0009   C
   18.7581   15.1189   31.2912   H
    9.1136   13.3493  -30.9851   S
    4.8278    1.6016   -6.6798   S
   22.1138   35.4582  -25.0163   H
   34.8693   -3.0564   32.3253   S
  -14.2643   33.2477    5.5679   N
  -25.7637  -38.3222   44.7710   C
   30.8256   25.8909  -19.7934   C
  -48.3419   39.1278    0.0289   S
  -29.2396  -44.6190  -15.9746   H
  -11.1768  -24.8406  -29.2230   S
    8.4241  -47.4526  -47.8480   S
   36.4195  -26.1112   26.1124   C
   38.1081    6.7505  -41.1248   H
    7.5299  -46.2187  -25.2147   H
  -14.0032  -21.5190   33.5050   H
   27.2672  -26.2634  -36.8278   H
  -31.0493  -42.0172  -48.6166   N
   38.0802  -27.7137  -42.5032   C
   26.5846  -31.2365   16.1479   S
   47.4690   39.6719  -27.2170   C
   -5.4065   39.3570   34.8955   O
   44.0486  -38.6612  -41.3814   C
  -30.5830   17.9184  -28.5304   C
   37.8139  -11.8061    7.8076   C
  -12.4877   21.5707   28.0393   C
  -23.0178   31.9965  -41.2420   N
   -2.7784  -17.8882    3.6967   N
   -1.9038   23.5815  -14.2578   H
  -36.1406  -45.0220   21.0101   H
  -43.6639  -16.9097   45.0295   H
  -11.4113  -39.9647   48.6955   O
   19.5909  -11.6781   23.4744   O
   47.6676   46.7310   12.9648   C
  -23.4640   -6.6514   32.3370   C
   31.3727   17.2535  -11.9274   O
  -21.7418  -48.5296  -22.6295   S
   48.1062  -11.5282   31.2082   S
  -39.5915   32.2005   40.6159   O
   -4.9070   42.0393   48.8635   C
  -16.4511   20.1055    8.3181   H
  -27.9625   16.3015   43.2903   N
  -42.0737  -35.5576  -47.7766   S
   -8.5662   27.2563   30.6798   N
   19.2653   26.3027   38.1370   O
   25.7661  -33.7203   34.2470   S
  -20.5207  -44.3180  -21.2357   S
   34.7319   14.8487    8.3701   O
   17.0687   20.9747  -14.6038   C
    3.2644   46.8331  -47.7558   N
  -17.5757  -34.7652  -24.2529   S
   -0.0297  -44.8920   15.9557   S
   44.9152   14.0161  -22.1405   O
  -43.3392   13.9681   40.4458   S
   -8.2571   36.5902   23.8340   S
M  END
$$$$
