Generated Ligand
Programmatically generated
Comment line
100  0  0  0  0  0            999 V2000
  -11.9363   45.5177  -12.4671   C
   11.0462    0.1961  -33.1566   S
   35.5968  -19.9105  -39.2369   O
  -14.2729  -39.4329   -4.5377   S
   24.2307   -1.4396   22.3365   C
  -37.2122    1.6300   17.0704   H
    9.5462   20.1832   37.8231   C
  -10.1481   11.1916   32.0408   C
  -33.6511   39.9464  -14.4177   C
   17.3733   30.3624   16.5963   O
   -7.0946  -38.7794  -31.0922   H
  -34.8231   48.4404  -14.3575   O
   23.5748  -38.7066  -22.0236   H
   30.8753   17.0134  -39.8360   H
  -24.5707   19.1204  -13.7439   H
  -31.6566   17.3918  -15.3792   C
   -9.3956   24.8604   30.5351   O
   -2.3170  -12.6620    7.4168   H
   -0.8563    9.3595   26.5722   O
  -41.4045  -39.6389    6.6840   N
   28.9170  -10.8700   -5.3662   H
  -15.0364  -36.8872   44.5191   S
   34.6263   45.6108    3.5038   C
  -29.3764  -26.3738   22.5316   O
  -32.4045   42.8545    0.6070   C
   33.1047   38.8558   47.5524   H
   -7.1721  -11.0574   42.3806   H
  -19.1231   26.1292  -18.3390   O
   23.1680  -21.4070  -16.0416   C
  -28.6252    2.2144   17.8954   S
   25.7266   43.5608   36.7847   O
   19.5544   -2.6496   28.3494   C
   -2.5434  -34.6556   33.9415   C
   35.3352   27.7043  -33.1976   N
    0.5005  -43.9556   13.8795   O
  -12.7093   29.3380  -29.3945   C
  -39.8177   27.9031  -28.5283   O
   23.4256    5.0323   31.3128   N
   24.2540   -6.8701  -34.1849   C
  -30.8051  -38.6941  -44.5979   O
   24.2116   41.4622   -7.5812   H
  -28.7425  -33.8285  -48.2610   O
   24.0120   35.6756  -28.3783   N
  -39.5882  -15.3857  -12.0824   N
   37.3059   -5.6103  -44.4681   H
  -40.7074   41.2387  -34.9979   S
   -4.4584   -5.9816   38.8663   S
  -16.3608   22.2757  -19.9426   O
  -32.6185   31.8609   23.2826   N
   15.8599   38.4838  -49.7818   H
   40.3872  -28.8332  -26.4523   C
  -30.7470    7.1981  -19.7302   N
   -4.1359  -44.0518   -3.3060   S
  -14.3977  -49.2679   24.6413   S
   26.2133  -14.5809  -22.5366   O
  -38.0363  -43.5646    4.6459   S
  -17.6768   19.4842   23.7235   H
   -2.5402    1.5093  -25.7088   N
   -1.4989  -24.6994   32.3662   N
   33.6855   31.0601   -1.7152   N
   30.2785  -16.0259  -38.9167   O
  -47.7681    9.0754  -31.8786   C
   17.3260    8.0345   24.6902   O
  -44.2876   -5.6930   -7.4782   S
  -38.8177    2.5612   35.2628   H
   26.8407   -5.4024   44.5718   N
  -18.2612  -35.2545  -30.1768   N
  -37.1441  -35.8529  -31.8316   S
  -11.4273   -8.7381  -30.6831   S
   -5.8090   16.0470  -25.9630   S
   24.7222   45.6847   -5.5733   C
  -43.4098   31.2250   44.4090   C
   -3.8021  -36.2626   -5.3872   O
   -4.7797   -6.8446  -29.3395   C
  -16.2434  -37.9683  -36.4593   O
   44.1305   18.7929    2.6478   S
  -25.8270   19.0401   25.0495   S
  -43.1117   28.4445   17.6033   O
   24.1384  -45.7344   24.4808   S
   18.7729   -9.1759   18.3450   C
  -49.0498  -29.5758   -6.7701   O
  -44.7511  -21.2665  -40.7708   O
   17.4120   48.6468   12.2049   N
  -33.9232  -29.0311   18.2438   O
  -10.8370  -47.6590   30.2253   H
   -8.4958    6.6379   -9.8082   H
  -43.1122  -11.1437  -35.8386   N
   26.6075   -2.6710   -4.6089   H
  -14.2490   44.3545  -40.2826   S
  -41.1756   34.9519  -15.7032   H
  -11.9566   -8.2491   19.7522   C
  -14.0314  -42.8215    5.9796   N
  -43.8944  -46.7241   -6.8060   N
   33.6900  -42.6416   39.6212   N
   42.6704   14.9707   -2.1695   O
    5.6923  -26.5761  -35.6238   O
  -26.7143   41.3107  -22.9145   C
   -9.9800   39.6593   12.6354   C
   10.3982   36.6534    5.1670   O
   21.7987  -25.6955   20.2446   C
M  END
$$$$
