Generated Ligand
Programmatically generated
Comment line
100  0  0  0  0  0            999 V2000
   13.2884   28.1637  -20.8037   S
   28.5676   22.7171  -37.8064   O
   34.0020    6.5501  -44.4026   H
   -6.2466   29.1595   25.4727   C
    0.2581   31.7160   44.7750   S
   43.0600   -9.3409  -42.5669   C
   16.8057  -33.0195   -4.6198   O
    0.2928  -40.4987   15.4946   C
    0.4110    9.1155  -21.9094   N
  -17.8399  -11.3103   43.5030   O
  -20.4436   11.0685   19.6821   N
   24.3329   20.1552  -17.8090   N
  -10.2807   47.2948  -35.0977   N
  -11.4620  -40.4251   28.5341   N
   14.3031  -30.3502   29.8188   S
    1.9593    9.8554   17.3957   N
  -11.2293  -38.1103  -31.3073   N
   22.3452  -45.6536   -5.1861   S
   -6.5375  -44.7815   48.5384   C
    0.6577  -36.8146  -31.3746   N
  -46.8754    4.9580   40.9540   O
    8.0060   12.2057  -48.6501   H
   28.4511   36.3541   35.0241   O
  -20.4485   36.3126  -39.5019   N
  -20.5286  -38.4640   30.6385   O
  -31.5316  -14.5308  -19.7822   N
   27.0058  -45.7942  -28.3608   N
  -31.4424  -31.5745  -18.4488   N
   48.9394   40.2815   35.9933   C
   15.0266   49.4472   14.2340   S
   37.2301  -31.7668  -10.7131   S
   37.9737  -47.3851  -37.4129   H
  -32.5710   -2.2915  -19.1417   S
   36.4793  -42.1528    9.3753   C
   -0.8447   41.7280   23.8421   C
   -5.2708   15.4948   43.1111   H
  -43.4393  -10.2424   33.4654   C
  -12.1454    0.5551  -16.1808   C
   21.3515   17.3694   30.9929   H
    7.1383   14.1343  -24.6239   O
   30.4782  -19.5289    2.8813   C
   48.9406   32.9980   16.6384   S
  -24.4845   31.2359  -27.8666   H
   -9.8233    9.5444  -49.0761   C
   32.9025   -4.7502   45.5210   O
  -20.8723  -41.0561   26.6776   H
   -9.3053  -23.0047   45.8237   O
    7.2170  -18.2903   45.4049   O
  -19.3393  -34.1484  -37.9450   N
  -44.8462  -29.7483  -25.3781   C
  -13.3603  -24.6726   33.5086   O
  -11.9716   26.7203  -35.7973   N
   13.5449   24.5107  -25.9338   C
  -43.7271  -25.3119  -37.9498   O
   -7.7691   19.5887  -23.8558   S
  -14.1120    2.7955  -41.7605   O
   38.7622   34.7763  -22.7740   C
   35.3196    5.5865  -24.1805   S
  -43.1208   -1.5502    6.7009   O
    1.5284    6.1276   47.7717   N
  -11.0651    0.6141   48.3467   S
    3.7899   10.2725    0.8054   O
  -35.4622  -25.5053   -5.6896   O
  -20.9070   24.7423   -5.3334   S
   -1.3699  -49.9824   17.8163   H
  -28.6007   14.8630   43.1777   H
  -30.2079   44.1067   17.8193   S
   14.1437   21.6534   29.9490   N
    9.9445   24.0040   31.0843   H
   30.9276   17.0653  -25.3113   C
  -42.2015  -40.0022    7.5388   S
  -35.5518  -13.3745    1.4431   H
   32.0225   -8.2806    6.5412   N
  -41.7648  -33.0912  -27.7104   S
  -30.5635   18.2570  -24.5449   O
   10.1660  -37.5563  -21.3033   N
  -45.7485  -48.9521   34.5859   C
   10.0173    9.2016   37.5793   O
  -24.0518   33.8611   -4.7597   O
   28.2180   34.9293   19.1477   O
   47.5990  -10.0421   43.8640   S
   -3.5690   30.8431   -3.2295   C
  -39.1962  -46.4099   14.7426   N
   13.1199  -10.2647  -18.7849   C
   46.5194  -29.1531    4.7795   C
  -19.6722   11.9331  -35.2180   H
  -36.4723  -15.7138  -19.4870   N
  -31.7026  -16.3719   -9.4205   H
   -3.5161  -15.5522   40.3044   S
   42.6946  -25.8447   35.1554   O
   31.4999  -16.5203   24.2079   S
   -0.7014   25.9741  -37.8949   H
  -21.7740  -24.5485   20.9953   C
   44.3589   11.4165  -18.7672   S
   18.1990   18.6678   49.5047   S
   12.8001   -5.6955   30.4108   H
   24.7634    1.7472   12.8603   S
   23.1028    7.0012   44.2774   H
   40.2873   13.4119  -35.5291   S
   40.6095   20.2158  -17.2187   S
M  END
$$$$
