Generated Ligand
Programmatically generated
Comment line
100  0  0  0  0  0            999 V2000
  -31.8577  -15.4792   13.3459   N
  -33.8400  -27.8119  -18.0658   O
   49.7642   22.1560  -28.0917   C
  -39.5982    8.4865  -31.0963   N
  -36.1112   -5.0335   -6.2985   N
  -27.6401   18.7498  -38.2735   H
   23.3684   28.9588   42.4219   O
   39.7237   31.3491  -17.3840   H
   39.8936  -15.8148  -37.4264   O
  -42.4860   23.6584  -49.5404   H
  -40.4373  -31.1457   27.7743   H
   16.2456   24.7769   10.8352   S
    4.1525  -23.9610  -27.8699   N
   14.0956   13.9503   43.1714   N
  -35.6344  -26.9140  -14.1730   O
  -22.2922   22.5803  -48.3988   O
   42.2775   -0.2723   23.0825   N
   -5.2627  -32.7247   13.3937   C
  -11.6677   30.2550   45.9553   S
   17.4510   21.2320   29.4210   H
   -3.1131   -0.7167   41.8507   C
   41.0893   38.0807    1.5279   S
   31.9013   33.0245  -19.8182   O
   49.0810   18.1051   18.2646   C
  -48.1458   24.0033   35.0771   N
   45.0708  -15.7914  -15.7887   H
  -16.9762   -2.2134    3.0870   C
   48.6396  -48.6149  -45.9366   O
    0.0708  -30.6767  -40.6345   O
  -24.9985    9.2707   40.4917   C
   -4.8565   12.6378   25.2710   S
  -25.7502  -49.5674   -0.5771   H
  -45.1783  -28.8427   -7.7004   N
    2.0079   31.1523   41.1998   H
   34.6156   16.2223   15.7978   H
  -23.5465  -29.9646   34.6299   N
   33.6651   41.7439   -9.3215   H
   -7.0908   29.1971   -0.9794   N
   24.6944  -21.1271  -42.5514   S
   46.5306  -42.7057  -12.3178   N
   31.6169   40.1760   13.5330   O
  -15.8844  -21.0166  -26.0237   H
  -17.2514   14.9660  -10.7486   C
   31.0262  -27.3209    6.2974   S
  -16.4508    3.8206   37.3223   H
  -45.0927  -10.3663   -2.0172   O
  -31.4886   34.4712   46.0192   C
   -9.5234  -12.1469  -22.6556   H
   10.2042  -45.7801   44.4859   C
   11.3107   -2.0184   48.2369   H
   45.6674    7.9468   36.3971   N
  -41.6693  -12.4142   44.0912   N
  -32.0095   48.0430  -28.6974   N
   28.9031   -1.1205  -27.4953   O
   21.6625  -29.5853   27.8669   H
   30.5915   33.0729   -5.3557   H
   24.7621  -19.7616    8.2676   S
   29.2025   -0.4001   32.8923   N
   20.6297   49.4873   32.5629   H
   21.7445  -48.8972   13.3629   N
  -36.4159  -20.2268   45.0071   H
   31.9035  -12.1258   12.1737   C
    2.2583    1.9287  -47.0868   S
   48.6578  -43.0199  -49.1380   S
   19.0455   24.2171   -5.3622   C
  -33.3928   46.6824   13.2910   S
   -2.3482   25.4165    8.8220   S
  -39.7580   18.0757   46.1264   O
  -36.8259  -46.1326  -30.1211   S
  -37.4050   27.5693   28.3947   C
    8.4762   16.8282  -12.5604   O
  -42.8610  -16.8557    7.6482   H
  -37.8704   30.4901   49.8554   N
    6.8830  -35.2604   31.5909   H
    5.0158   24.5568  -34.1520   S
    3.4344    0.9846   15.6871   S
   21.6453  -15.1407  -38.2175   C
  -45.7312   36.6473  -46.0798   H
  -36.9526  -12.9050  -21.3671   O
   45.1996   27.3261  -26.7616   N
   -3.2578  -22.0520   42.9711   S
   46.9268  -39.9738  -32.1112   N
    7.8324  -13.0481   26.8378   C
   45.7579  -44.7751  -44.3455   C
   15.1593   49.7757  -47.0268   O
   46.9578   38.9441   23.9007   C
   40.8350   24.7284  -36.2005   S
    9.0533   42.9049  -34.8388   N
   26.0187  -36.7898   15.1367   C
  -47.4480    9.8146    4.4205   N
   28.8062  -25.8510  -19.6008   O
   29.5027    3.2370    1.1586   O
   28.3506  -21.5212   28.8467   O
   38.2828    5.1881   26.3892   N
  -47.7663  -13.5593   17.0816   O
  -43.3406  -31.5326   -9.5628   H
   -7.8479  -11.3398  -12.4977   C
  -15.5823    8.8891  -43.7487   N
   38.6584   38.1794   30.8957   S
   44.2128   23.5422   34.1489   N
M  END
$$$$
