Generated Ligand
Programmatically generated
Comment line
100  0  0  0  0  0            999 V2000
  -16.7570    8.3862   19.0246   C
  -14.8678   -4.0722   27.7430   C
  -17.4668  -14.7153  -16.2412   S
   -7.8037   -0.3069  -37.0486   C
  -23.2467   48.0232   -8.6682   O
   39.1904  -10.3743   30.2736   O
   -3.6930    9.5791  -36.2805   O
   45.5398   -2.8446  -20.9134   N
   38.5577   -9.5246  -32.6447   C
    0.7964   36.0426   44.6513   H
  -46.3671   31.9120  -20.9766   S
    6.5078   12.8107  -48.8276   C
   -1.0569   -6.4392  -26.6946   S
  -14.3026  -18.7020   28.1791   C
   -7.3566  -34.0963   10.8569   S
   26.4611   13.0617   15.2004   S
  -31.1271   45.4384   14.9755   O
   40.3983    3.7994    7.3765   N
   -3.8149   31.6185   45.4960   N
  -33.8303    6.1288  -44.7405   H
  -39.6200   11.9248  -27.0041   N
  -26.0216  -48.9679  -47.2729   S
   19.4899  -30.3507    8.2461   O
   -8.3023  -22.9579   33.2888   H
    3.5242   -1.0445  -45.9449   C
  -49.5615   49.0367   32.5283   S
   20.3339   48.2401   22.5920   N
   41.9372  -20.3601   37.8918   H
  -44.8903  -49.1690  -45.6229   S
    0.4017    1.4871  -24.1486   C
   -5.4106   47.7545   11.3567   N
  -46.4624  -19.2948   25.0581   H
  -46.9495    6.7386   18.4956   C
   27.3544   -1.1347    8.6206   H
   46.2730  -40.5199  -48.6121   C
   45.6626   27.6665   -8.6809   N
  -29.1029   13.0849    5.9617   H
  -14.5611   36.9468   38.4666   O
   44.8245   39.1496   25.5974   C
  -33.2079  -14.1994   -5.7555   H
  -25.3757  -47.7529   24.4300   C
  -19.3018    0.5520   22.2152   N
    7.3862  -46.5246  -49.3538   H
   32.8069   48.5112    7.8822   N
   12.9561  -34.7268   33.9676   S
  -25.2292   11.2691  -38.5383   C
   42.2305  -13.5047  -46.3324   H
  -35.9118   34.6365  -30.4355   C
    2.0167   -6.6804   -4.2773   S
   14.3687   39.2742   -1.5381   S
   34.9057   33.6884  -26.8846   H
   -7.1719  -36.1542    5.1390   N
   11.9852  -26.0229   21.8886   H
    8.9480    1.3329   22.8321   H
  -23.2438   10.8980  -35.3738   O
   30.8411   40.3969  -13.6088   C
  -48.3340  -14.5893  -27.5348   S
   -8.0564  -16.5666  -48.2963   S
   -5.3150   16.8430  -46.6559   N
  -18.3890   25.3326  -31.0089   H
   25.4742    6.3526  -36.4502   N
   -2.5743   -7.9137   -7.7984   C
  -32.5077   39.5492  -39.8579   N
   -8.3755   22.0834   10.7974   S
    8.6260   41.5993  -33.1638   N
  -38.0987  -14.3252   21.4383   O
   11.7517  -26.4878   44.1661   C
  -25.6286   32.2199  -39.5673   C
   49.6614   23.7855    7.8752   N
  -25.4617   33.4191    8.7079   O
   33.0113  -10.4544    2.5671   C
  -12.9733   35.2513   -5.5426   H
  -39.2516   35.8653    9.7389   O
  -20.8595   28.4247    3.2386   N
   13.6774  -21.8106   -4.5060   N
   30.6685  -16.0721   18.9526   H
   24.7684  -14.8249  -49.3756   H
    6.5094    2.8556  -40.9971   O
  -37.3595   10.9875   38.2168   C
  -33.2133   30.2662   42.7152   H
   29.3273   23.5525   40.8255   S
   46.2159   34.5603    3.3880   S
   16.8802  -22.0579  -15.6454   N
  -36.3962   40.1681  -18.1498   S
  -21.0232   27.0682   49.5243   S
    6.6347    4.9696  -14.0499   H
  -34.8446  -43.0609   -5.5031   N
  -27.8510  -29.6161   21.8080   C
   -5.2032  -47.7329   45.1422   C
   41.2993  -16.7934  -45.9687   H
  -30.8911  -31.3892   19.0203   S
  -35.7710   -3.8712  -25.1920   O
    9.0543   16.1460   35.8312   C
   46.3652  -38.7985   15.5456   N
   10.0160  -40.0721   -2.7911   O
   15.6844   -7.4122   47.6539   S
   38.5107   35.2230  -22.6844   C
   37.4270    4.9099   22.2473   O
   47.1362  -38.5205  -35.6233   C
  -42.2183    3.0791  -31.7754   N
M  END
$$$$
