Generated Ligand
Programmatically generated
Comment line
100  0  0  0  0  0            999 V2000
  -14.2257  -35.7855   46.1778   O
   24.7679   39.2765   18.9512   N
   16.9396  -45.9816  -12.6649   C
   26.0431   36.3877  -19.7380   C
    4.3528   43.3575   15.0415   O
    7.7644    7.3885    6.8643   N
  -46.9046  -26.0044  -34.5829   N
  -15.9143   46.9203  -33.5292   O
   47.6698   10.2349  -36.8591   S
   20.0815  -13.7493  -13.7172   O
    9.0207  -28.3258   29.1388   N
  -24.0420   44.2955   27.0762   H
   -6.1418    1.0413   48.2420   S
  -49.0303  -21.7906   24.1156   S
   19.1330   27.1923   13.9471   S
  -49.0038   15.9968  -24.9350   S
   10.7604    6.5193    3.5401   N
  -22.2338  -41.4547  -42.4469   O
   34.8110  -26.0073  -24.1561   H
   25.5823   -4.0607  -25.2180   N
  -33.8676   26.1740   29.1353   O
  -36.8457   14.1053  -29.2434   O
    3.1458   -0.5704   23.9715   S
   -1.2381  -42.0440  -21.4125   N
  -28.6329  -12.1419   -7.5453   S
   21.4022  -31.1037   11.7138   H
   45.2949   17.3765   -4.6526   C
   43.0073   -2.8006  -21.9458   H
   -7.6183   34.4117   -3.9107   O
   15.7098   -2.7516  -38.6254   O
  -19.1238   36.9635   29.1252   C
  -38.3037   48.4360   44.0983   H
   -2.1667  -22.2280  -22.6403   O
   27.8823   41.4917  -21.1939   C
  -43.8094  -27.8384  -40.0882   H
   23.7840  -17.8864  -31.2536   C
   35.6008   13.1643  -34.8909   C
   49.6502   49.6771   40.2934   H
   16.8120  -13.4533   20.8037   N
   43.0916  -26.5469   46.8836   S
   42.5816  -46.1175   34.3572   S
  -36.4550  -33.9054   21.4223   S
  -48.7486  -30.5875  -28.3512   N
  -39.8198   21.0213   26.9786   H
  -49.6156    5.0552  -46.0251   N
  -12.9036  -29.5009  -28.5724   H
    9.6807   30.6586   33.5170   O
   20.1474   15.2095  -25.9925   O
   22.6445   39.5806   32.0817   H
   44.1248   -9.5938   -8.9352   H
    8.4331  -20.0823   42.5989   O
   27.0168   41.4453    3.2065   S
   -5.7236   35.3615   42.1818   O
  -10.7795   28.6330  -24.5024   H
   48.8064    9.1578   41.2260   C
   38.1699    0.7991  -41.5651   H
    9.8208   13.2389   -5.6742   H
  -22.6676  -47.5117   37.4871   N
   18.8702   20.7620   17.0792   H
   24.3016   32.3202   49.0274   N
    1.9935  -49.3452  -14.9702   O
    8.9050   23.7032  -12.6699   N
  -24.1624  -36.9398  -42.6248   C
   34.3733  -29.5511   -3.5950   S
   12.2671   23.7668   16.5215   C
   48.9244   44.2278   36.9645   C
   35.9466  -47.1883   28.5085   C
  -12.1388   -4.8532  -13.8373   S
  -21.2302  -17.9033   -7.0492   S
  -48.3513   13.8900  -28.4280   C
    3.1162  -12.4964  -29.0863   S
  -23.2271   -5.8894   41.3056   H
  -28.2265  -14.1433    4.1286   N
    1.9406  -12.6931   13.7853   N
  -36.3228   28.2318   20.5923   S
  -19.0893   43.0992  -31.9842   O
   -8.1398    3.5688  -22.3933   H
   -7.2292  -40.9593   37.7012   C
  -40.1997    7.1377    8.4035   H
   33.4351   33.2401   28.0302   N
  -38.3230   -8.2484   38.4345   N
  -10.4146  -22.5718    4.8163   N
  -16.1555  -37.2948  -20.8866   C
   -9.8577   -6.7306  -14.3592   S
   -8.2462   -3.1068   -8.6013   C
    4.6315  -39.4450  -11.5548   S
   37.6542   28.9927   30.9129   S
  -26.6359  -48.3732  -21.4200   O
   42.6937   -6.9161   32.8544   N
    8.3371   23.4555   15.2922   H
   16.3338   17.7434   26.2009   S
    9.6254   39.1094  -23.4939   N
  -39.6354   20.5404    3.2166   N
  -11.3129  -29.0532  -21.4660   H
   26.9595   -1.5455   12.0399   N
   30.8048   20.9402    5.3927   N
   13.0428  -13.5980  -46.8983   O
   45.1166   10.0806   35.0408   S
    5.9645   13.3192  -23.7798   H
  -40.1998   11.4338   47.4549   C
M  END
$$$$
