Generated Ligand
Programmatically generated
Comment line
100  0  0  0  0  0            999 V2000
   40.3910   21.7450  -31.8840   S
   44.8679  -20.3172   31.7548   H
   -1.2578  -48.8286  -33.0678   H
  -16.5130  -17.9440   28.8940   H
   34.6641   -2.1099  -34.2930   C
  -41.8686   46.0903   -0.0602   C
  -37.6953   39.2861   17.2655   H
   46.8159   11.5654    5.8602   S
   29.7561    1.3313   26.8822   N
  -21.1746  -16.8746   45.0268   N
   44.8820  -16.8773  -31.9328   S
    2.0083  -43.9663   -4.5706   S
   28.2422   48.8473  -13.2401   S
  -42.7559    3.9761   -5.9041   S
   46.0666   24.0069   26.7796   H
   27.6268  -48.4989   10.2972   N
   31.5210  -48.2509   10.6275   N
   11.6086    4.5278  -27.0268   N
  -13.7424   15.4287  -31.9836   S
  -41.2889  -30.8368  -27.3068   C
    2.3319  -16.3086   -8.0682   O
   -0.0841    5.3942  -48.5016   S
    1.5084   25.1810   -3.7623   H
  -29.2475   26.5027   -3.9424   O
  -42.3726   -7.4587  -44.1768   C
   19.5368    7.8769   -7.7418   N
   14.6264   -2.9747   47.5797   O
   48.6720   -7.3253  -44.1345   N
   33.0058   48.9457  -46.1806   H
  -11.9840   43.4344   36.1530   C
  -15.1536  -40.4238  -32.1742   C
   42.8777   26.3849  -49.3238   H
  -33.2379  -36.3655   17.6116   C
  -24.3750   16.8040   34.2376   N
   -9.3013  -33.5065    4.4884   C
  -31.0521  -19.1189   44.8747   H
  -38.9405   -0.8629   -0.7709   O
   28.9613   16.3450   42.8600   H
   49.1081  -27.1195   44.2820   N
   -7.8121  -33.7023    7.0416   S
  -43.2098   19.1883   37.0610   N
  -25.8570  -25.9825  -40.7801   N
  -40.0270   44.3129  -18.5133   H
    7.1538   -4.5408    9.4021   C
    7.6762   30.9675  -11.6332   O
  -14.6973  -31.2416   35.7967   S
   40.0490  -18.9517   -5.6991   S
    2.7486   39.2089   26.0712   C
   -9.1314   44.8929   39.6799   C
   39.5990  -22.5944  -34.3052   H
   -2.9110   38.7441   -6.2325   O
   12.4649  -42.9729   13.6837   O
   44.9171  -26.7311   24.3479   S
   39.6479   -8.7488  -41.2695   O
   37.5824  -30.1840  -37.6417   H
   -4.4398  -13.6313   26.4836   N
  -11.5989   46.6211  -33.8903   S
   -1.6662  -38.2545   -5.2152   S
   18.3222    4.6597   32.7517   O
   37.0870   14.0396  -30.4373   N
   30.8458  -10.9729   48.7731   N
   20.4033  -34.1753   15.4512   H
  -47.3558   35.7629   11.1910   O
  -20.6311  -15.6730  -35.0060   O
   22.6035   32.5223   13.4979   N
   -3.5530   -9.7460   -3.8988   C
  -33.4354  -38.7243  -34.2763   O
    0.5493   -6.1593   47.2263   N
   48.1498   44.1302  -31.5383   N
   45.5289   38.0362   -8.5040   N
  -14.5398   42.3324   31.3848   C
  -35.8809  -33.6202  -48.0679   H
  -46.9542   -0.9601   -3.3607   S
    2.1912  -42.4630   11.0864   O
  -45.2716   29.8674   39.1271   N
   32.8810   36.8713   40.0382   O
   20.1970   44.4365   24.5062   N
  -47.1590   16.0464  -34.0857   C
   38.7887  -46.0752  -22.4337   H
    6.1078  -31.1906  -13.0399   O
   47.3578    8.8425  -16.1770   C
   26.5864   -6.5874  -32.6297   O
  -47.3123  -40.8462   -2.3667   O
  -28.4113  -38.9293   12.5232   C
  -32.2585   38.7808   43.8746   N
   39.3443   24.7443  -44.5780   H
  -47.4598    6.0439    8.5533   O
   30.4153   31.5831    1.7672   H
  -24.6019   -5.1297   24.6244   S
   26.8475   14.7937  -35.1705   H
  -40.9628    3.7760  -39.2324   H
  -28.2893  -42.4019   21.3372   O
   15.5374   41.6254   49.1515   H
   12.2207  -22.0807  -34.3312   H
   44.5845  -19.4514  -46.7207   O
   11.0985   31.9594    7.4549   C
  -44.1495  -19.7394  -30.2652   C
  -36.9038   -8.1845  -20.3590   S
  -46.6252  -37.6569   -0.2231   S
   17.3140   29.0992   20.4071   O
M  END
$$$$
