Generated Ligand
Programmatically generated
Comment line
100  0  0  0  0  0            999 V2000
   17.8213    2.2789   23.8219   S
   -2.1302  -18.2238  -29.2305   H
  -42.8420  -23.8479   39.8863   N
   27.0386   24.0427    1.2301   H
   40.1195   -0.6173   32.3864   C
   31.3641  -44.2735  -32.5237   O
  -47.0870  -45.0986   13.9497   C
  -34.9378  -48.1827   12.9345   O
   18.3418   -2.9156   -6.0121   S
   34.3781   15.5124   36.7511   O
  -38.3214  -17.7212  -24.3432   N
   27.9019  -10.6937    4.2691   N
   22.5876   42.0206   -1.7900   S
   -3.9306    4.8641  -14.3923   N
   24.6401   -7.6797   18.5678   H
   15.2271  -32.9072  -38.7274   O
  -37.8180  -45.4051   20.4630   S
  -28.8649   18.0867    4.1696   N
   23.8030   24.4739   -3.7466   H
   41.5299    8.4346   42.8016   O
   16.1038   24.7670  -39.5062   C
  -25.4049    5.8010  -15.6420   S
   48.9970  -29.7183  -19.1150   C
  -23.0726  -11.5182    4.2319   S
  -31.4459    5.3846   34.1618   C
    0.1895   36.9426   -4.5641   N
  -35.8366  -12.1312  -22.6853   O
    6.1265  -27.7441   23.1061   O
  -27.9120  -11.0712  -25.6438   N
   34.7927   15.5678   32.8247   N
  -47.3229    6.7423   38.1477   H
  -38.5439  -16.4748  -43.1628   O
   47.9419   13.6710   45.6514   O
  -37.8486  -47.5847  -29.9761   C
   21.6408  -36.2524  -31.9631   C
  -40.6135   15.6306  -19.4800   H
  -16.4335  -29.9946   49.0244   N
  -43.5341   -8.8550   32.6629   H
   27.0880  -40.1497  -39.8039   S
   17.1001   24.1449  -34.5183   S
   14.8079    4.2444  -38.3252   S
   26.1616   17.2131    0.4612   O
  -40.7725   -8.6777   27.3732   N
   36.0620  -18.2657   38.2528   O
   -5.7858   34.2309   13.7454   C
  -29.9944  -37.9745  -38.6102   S
   32.6632   36.7414    8.3046   O
  -26.6257   19.5181    2.9759   S
  -31.7532  -30.6766   40.9016   N
  -14.4245  -37.8737  -44.1245   H
   27.4495   49.8474  -28.4553   N
  -32.5442    5.7756   25.5340   H
  -43.7377  -46.5982   44.5441   C
  -34.3218   42.6606    9.6719   N
  -17.3633    8.5593   16.3509   N
  -11.6888   21.4007  -42.2712   O
  -37.8562  -39.2638   43.6200   C
  -45.0338  -40.2918    0.2921   H
   21.5405   19.2416  -30.5310   C
  -25.7563   47.9371  -49.1723   S
  -25.8973   29.3092  -24.5219   O
  -14.6848  -25.1777   -1.9041   N
  -43.4274   28.0201  -37.0938   S
  -37.0028   -1.7405  -39.0513   S
  -15.6579   46.5958   18.4674   H
  -29.1822   15.0275   38.8365   H
   43.7103   25.2435    2.6432   O
  -31.6325   -7.8206  -49.3585   H
   -0.6219   44.8429    6.6930   O
  -48.6488   43.7305    6.3197   C
  -49.3564   -0.1207   -0.3451   N
  -15.3396  -16.0311  -15.0271   N
  -33.3797   25.4031   17.0625   S
    0.2242    7.1548  -34.8355   O
  -14.6576   39.8866  -17.5612   O
  -16.7002  -40.6088    3.0505   S
  -32.8915    7.1806   31.2581   N
  -40.1402  -29.8340  -47.5944   N
   -9.2300   25.1639  -37.3095   S
    5.5288   -6.9832   48.9665   O
   39.3594  -47.8749   12.4330   O
  -47.3301   -9.7845   19.3653   N
   30.0200  -12.8862   14.7799   N
   30.2462    8.0579   19.5597   O
  -45.9002  -36.4031   18.8873   N
   -9.3866  -14.4732  -35.1571   N
   45.2413   43.5909  -42.4863   H
   15.3852   -5.2926    2.8244   O
  -40.4259  -42.9643   17.6998   C
  -30.6713  -38.7659  -42.0923   S
  -39.3145   20.7090  -19.0870   H
   47.4179   23.3625    8.2712   N
   10.3535   42.0332    7.1154   H
   -8.7001  -26.5009    1.8013   C
  -21.9696  -45.5069  -31.8540   O
   27.3175  -47.9616  -21.1175   S
    8.5822  -39.2394   12.2738   O
   41.2594   -5.8249  -44.6259   O
  -36.4679   -2.9678   41.8492   O
   43.6052  -26.1683   -3.8215   H
M  END
$$$$
