Generated Ligand
Programmatically generated
Comment line
100  0  0  0  0  0            999 V2000
    0.9455   30.3661   31.2408   C
   21.5245   46.8703  -27.1529   S
  -29.4810    2.8766   32.7463   S
   47.4537   22.6102   29.8559   S
  -26.6578   13.6792  -13.7489   N
  -42.9264  -13.7214   44.1694   S
   33.6376   19.6380   42.2990   N
  -10.1219   47.0025  -30.0881   N
   14.2006  -17.0882    6.6238   O
    5.2766  -29.0484   33.5158   S
  -35.1226  -24.5492  -24.2705   S
   -7.6170  -43.5477  -25.1418   S
   26.4975   31.8215   36.4218   S
   -3.8864  -47.1042  -33.3594   S
   36.2527   32.0110  -38.3932   N
  -27.0588   34.1672  -32.9503   C
   -4.3940   48.0985  -37.6156   C
  -11.6739    5.8944   23.9719   S
   43.6083   19.7016   33.2956   C
   -7.1741  -48.4678  -15.7712   H
   25.9313  -49.4727   33.8134   N
  -12.2671   36.3218  -40.4673   S
  -15.6306   16.6240  -26.0134   N
   23.1039   36.5458  -44.7361   C
  -28.7036  -27.3659    0.5727   S
   18.5319  -42.1177    0.1037   H
   48.0020   44.3620  -28.7003   C
  -38.2600   40.6428  -31.5386   S
   -2.8999   28.4966   10.7531   O
   44.5799   46.1411   47.5763   S
   23.8609  -27.4050  -35.3836   S
  -44.0877   14.8836  -41.6574   C
   43.9756   44.4017  -13.2584   N
  -12.6794   -4.1397  -15.1175   N
  -17.6545  -25.7653  -37.9004   S
   49.0424  -22.9143   23.7339   H
   36.7802   -8.5442   16.6624   N
  -25.3768   37.2940  -31.8884   O
  -39.4369  -41.3845    2.0843   S
   21.9448  -23.3594  -19.3298   S
  -31.0473   35.3184  -13.0677   H
  -35.6349  -23.7523  -18.9254   S
  -47.2876   11.5605  -49.0774   O
  -18.1034   -2.3860    7.3638   O
   -9.4029   24.2041  -34.0405   N
  -38.9707   -7.2185  -24.8725   C
  -43.0927   38.9713  -39.1168   S
  -25.5974   29.6599  -11.6732   H
    7.0326   -9.4741    8.3135   N
  -10.1359    0.8647   40.3394   C
    6.8240   46.9749   48.4053   S
  -23.7755   34.1656    0.0968   N
   34.0546  -34.4539   47.1003   S
  -48.7977  -11.6730   10.3370   H
   21.8736   41.8602   -1.0291   S
  -34.4222  -30.0531   34.7693   S
  -15.3255  -21.5169  -22.2735   H
   -7.4055   29.4152   22.5796   N
  -16.4619   49.4908  -21.5199   C
    8.7162   18.1732   29.8720   H
   40.0629   -9.2464  -11.6731   N
   42.9884   -5.7337   20.4717   C
   13.0051   17.7687   27.0199   O
    0.1698  -42.0273  -45.2226   H
  -12.9564  -46.1208  -46.7137   C
  -21.8255   40.7798  -48.9139   H
  -31.3204   16.5388  -48.4166   N
  -43.7123   25.8203  -43.3384   C
  -24.7523   35.1548  -48.9313   S
   17.1696  -36.4825    5.6057   S
   29.6384   33.3362  -41.9564   C
   35.4535  -31.4424  -26.5582   S
   43.8507   31.0154   32.2970   C
  -44.7235  -10.2500   39.2289   C
   40.0793  -18.1649  -29.3620   N
   34.2013  -38.5746  -34.6629   O
   37.3536   39.1012   28.2773   O
   49.1817  -35.3772   24.4651   C
   16.3414  -26.2574    0.9939   C
   -5.4162    1.7648   40.2521   N
  -15.8601  -32.2233   -1.3251   N
    4.0360   27.2090  -23.7334   N
  -38.3725  -33.3947   13.1942   O
   19.0101   24.9572   42.8501   S
  -11.8789   23.3428   35.3855   C
  -48.6933   10.6921  -31.2047   N
  -36.2264   24.1645   30.4744   N
  -18.4041   47.0493  -16.7543   O
  -47.5758   41.5803   14.8700   H
   -4.4085  -25.3962   49.5447   H
  -38.3374  -39.0867   12.7539   H
  -30.9199  -47.6761  -16.1218   O
   47.8737   28.5660  -31.3607   O
  -22.6259   44.2770    8.1543   C
   10.6704   37.1248   40.4107   N
   -2.6112   40.4047   14.1361   O
  -36.6247   -6.5292  -48.3681   O
   42.7020   -0.9003   17.9956   S
  -23.2699    4.7259   -5.7808   S
  -16.0405   46.4602  -11.4455   H
M  END
$$$$
