Generated Ligand
Programmatically generated
Comment line
100  0  0  0  0  0            999 V2000
   16.8882   24.6832   48.7185   N
  -29.7641   18.5832   21.2159   O
   19.5638  -14.8299   12.7233   O
   -9.1742   -2.0612   37.1192   H
   29.0993   20.2078   47.6212   C
   47.5148  -24.3256  -36.2500   S
    0.5579   10.6581   21.6663   N
   39.9868   25.4240   -9.2298   O
   27.2729   -7.3965  -13.8191   O
  -21.9136  -25.8140  -30.3130   H
   -7.3084   34.0800    1.5314   H
  -14.7225  -12.6887    3.4477   S
  -30.0972  -30.1320   19.6699   H
   22.5826  -26.7894   33.5659   N
  -10.6678  -39.2499    6.8919   S
  -42.1308   38.4958   14.0595   N
   37.5581   45.9841   22.1254   N
    1.8703  -12.2966   37.0090   N
  -11.8805  -27.3743   13.4551   S
  -31.0056   -5.7408   20.2375   N
   -2.8622   17.4993   23.9413   N
  -23.3505  -18.0420   19.9181   C
   28.3057    5.0747   26.9452   S
  -27.9318   43.9736  -25.8865   O
   -4.9798  -49.0040  -34.4829   H
   -7.9592  -12.5891   34.1280   C
  -28.1575   12.0498   -7.7636   H
  -48.5066  -25.6908   48.7303   H
   22.4543    5.3936  -17.0611   S
  -41.2607  -45.5293  -19.0023   N
    4.1880  -20.8604   24.3089   S
   -8.3702   31.2737    9.6539   O
   43.3707  -41.0739   49.6420   C
  -47.8991  -16.6813   16.2822   C
   -1.2009  -25.1108  -32.2075   S
  -38.4514    8.7763   14.2895   C
  -47.8317  -11.8502   48.0128   C
   15.6357   -9.0471  -17.7730   O
  -45.1983   36.9864  -38.0762   O
   11.5060   13.9171   33.8172   H
   24.1444   17.8143  -28.5265   N
   -7.9006   -8.8971   -4.2796   S
   39.4338   -9.0620   -9.0537   H
  -21.2231   -0.2262   24.5317   N
  -33.1849   -0.4753   15.2966   H
   41.0250   44.5395  -28.2793   H
   43.9273   15.7665   28.8959   S
   12.0540   11.8751  -26.6433   C
   28.6914   30.4152  -31.2592   O
   40.1717   41.6010   24.9958   S
   20.0307   -2.8960    3.3469   N
   -0.1926    8.2288   42.6833   C
   29.8922  -14.0860   39.3789   N
  -29.1197    2.4083   -6.8917   C
   39.3660  -40.0274   33.9946   C
  -34.5850    4.0974   11.3301   S
   44.9413   14.8211  -32.8257   N
   49.0999  -18.9105   -4.8114   O
  -49.5915   -7.5705   46.1268   C
    2.0356    6.6644   46.3330   N
   -8.4744  -33.0844   48.7749   O
  -18.4109   27.4232  -30.7883   O
  -30.3228    2.5941   48.1488   C
   27.5170  -14.9943  -49.0665   C
  -27.6498   32.7228   25.7652   N
   42.6316  -15.3560   -2.3343   S
  -24.3074  -30.7701   28.5938   H
  -44.8283   33.8360  -24.1936   N
   22.7566   42.7650  -30.7994   O
   15.0180  -26.0817  -41.5471   C
  -10.0813    3.4667   -6.0682   H
  -28.5300   45.9666  -28.1991   S
   -5.9121   46.2395  -19.4693   N
   31.8419  -38.7176   16.7921   O
  -41.3008  -44.2209   -1.0945   N
  -47.1742  -46.5222   47.4377   C
   29.4566  -31.1822   19.0299   C
  -14.6420  -28.3064   24.9934   S
   38.6082   10.4955  -19.6449   H
    8.8014   23.6400    0.3945   H
  -16.1376   22.6084  -17.7473   C
  -31.6586   18.1196   -4.0429   S
    5.0601   20.0265   36.4857   O
   17.9634  -49.0251   -1.2869   N
  -36.5183   31.6694   10.4907   H
  -39.4110  -17.9171  -13.8717   C
   14.8764   -9.2487  -29.9038   O
  -14.2838   32.4354   17.5657   H
   27.6326  -35.5952   27.1780   O
   49.9939  -43.0661  -22.0358   N
  -11.1261   30.8231   21.6663   S
   43.0046   -4.1344   32.1702   N
   33.2826   27.8027   22.3770   H
    3.9533   33.9863   -7.0951   N
   15.1103    9.6528   -7.4897   H
   25.9035  -43.1072   33.8511   C
  -23.1240  -32.2737  -31.4408   S
   41.2642   49.0821   -5.7955   C
   44.7665   36.4874   19.8792   S
   40.5316   -4.2610   12.2387   H
M  END
$$$$
