Generated Ligand
Programmatically generated
Comment line
100  0  0  0  0  0            999 V2000
    0.5055  -22.5683   42.2392   N
  -12.9085  -39.0756   22.2213   C
  -41.6738   -2.1088   43.5720   S
  -21.6467  -36.3497    9.0658   H
  -19.9194  -18.2396   27.9027   N
  -42.4881  -28.8776  -38.7803   S
   48.8811   -1.6507    0.7192   H
  -32.8081   41.7858   37.7719   S
   22.9436  -49.3511  -38.5980   N
  -15.5003   18.9134   27.5216   O
   15.6891  -29.3907  -23.2686   N
   48.2303   34.4640  -20.9348   H
  -19.2065   34.9754  -32.7635   O
  -46.0392   30.5878  -26.1694   H
  -21.1790   18.7890   -4.5196   O
  -34.1899  -38.8177  -43.9345   O
   34.5516  -46.3074   19.7027   C
   40.2337   -3.6736   29.8001   S
  -19.5408  -37.4137  -25.2908   C
    5.0786    9.0780   -2.5698   C
   -2.3340  -43.9257   48.1003   H
  -24.5785   11.0489   -1.7539   H
  -15.1309  -11.0797   17.4325   H
  -10.0673   25.3938  -45.1938   N
   10.9927  -43.8274   12.4069   N
   27.8261  -41.2813   18.0430   O
   35.0243   12.1138  -36.1719   N
   -2.7563  -23.4174  -33.2506   H
   37.3442   -5.7882   -9.6010   C
   11.1129  -21.8302   26.5762   C
  -25.7616  -26.6946  -16.6450   N
   -8.8389   37.0632   10.3282   H
   18.7417   41.5241  -38.7831   S
   28.3189  -33.4574  -45.7559   O
  -20.7740    1.5289   24.3646   S
  -16.4782  -16.4615   22.4088   C
  -23.7761  -48.3753   22.6704   C
   20.0541   37.3120    0.8010   H
   24.2753  -10.5298   -2.9601   S
   32.1205   18.3730    0.8126   H
   18.4544    3.6129   39.5519   C
  -16.9523   47.1905  -29.5267   H
   46.0610   10.9829  -46.4533   S
  -14.3168  -48.3227   11.2922   O
  -10.9780   30.8012   26.0087   S
   -3.0034  -33.5273   39.7044   N
   26.1370   15.5352  -24.2103   N
  -19.5372   45.9871   27.1882   C
   27.3313    0.2594   33.0620   S
    9.0453   29.5883  -32.2501   N
   15.7575   17.4157  -26.7176   O
   -8.1695  -26.5594   11.9189   S
   20.5171  -11.9009   12.0868   C
   -3.0621   -0.1465  -48.7780   O
   -1.7167   23.3529   45.2760   S
    6.0714  -38.8872   28.7270   S
   42.7697   18.0344  -37.1967   C
    4.0013    6.2309   -9.3359   N
  -16.5212    7.2331    1.4977   O
  -11.1397   12.4897    9.0762   H
   15.8387   38.9153   46.6399   H
  -35.3377  -10.7117  -19.2517   N
  -21.1844  -18.8249   20.2442   O
   25.4027  -40.4556   -7.5314   H
   46.0084  -12.8517  -36.0326   S
  -19.1984   31.9738   34.1872   N
   -3.0738  -15.9016  -14.3314   C
  -44.1568   29.7298   11.2206   H
  -29.1675  -47.0812  -34.4452   H
   28.4963  -27.1063   34.0530   N
   -3.2801   -2.0036   15.4168   H
  -25.6312   40.4188   42.4971   O
   34.1841  -45.0462   26.4690   H
   -8.7624   18.8631   43.8111   N
   -0.6345  -11.6176  -28.4876   S
    6.2083  -13.6958  -28.7161   H
  -25.4664    2.3278   -7.1994   O
  -24.5376   32.8995   30.9447   H
  -15.1489  -30.9559   30.7659   C
  -22.7731  -47.8514   41.7063   O
  -46.6898  -40.5841  -35.6270   H
  -14.1063   15.1296   32.9414   N
  -30.4393   41.7156  -37.0631   N
   -8.5026  -25.2976   36.8555   N
  -45.8877   24.9943   30.2740   C
   14.8370   49.2222  -28.7447   N
   43.3970   35.6441   17.8521   C
  -27.7701  -25.8247   -3.6099   O
  -12.2071  -47.0426   -3.8614   H
   36.9105   10.1819   44.9348   N
  -25.6074   10.0169  -46.3363   O
   43.5969   27.0783  -48.5493   H
  -31.8335  -13.7347    9.6521   C
   16.3006  -32.7312  -46.4021   C
   -3.9786    3.1090   24.2695   O
    8.6490  -44.8957   -3.9823   H
   28.7765  -47.4490   -4.3338   N
   -6.6958  -24.7177  -26.5133   S
   -7.7069   17.5161   -6.7331   N
    3.6321  -12.5443   -8.3199   N
M  END
$$$$
