Generated Ligand
Programmatically generated
Comment line
100  0  0  0  0  0            999 V2000
   24.5236   15.9100   30.1880   N
   30.7188   33.5121   -3.1618   H
  -10.0091  -20.7234   10.1607   O
  -19.8654   19.3593   -3.0365   N
   31.0107  -11.9235   25.7069   H
   46.7467   15.6096   20.9388   S
   36.7675  -23.9404    9.7940   N
   -7.0909   37.9183  -30.1233   S
  -30.5647   27.3291   30.3198   S
   48.9647   25.7487    1.0023   S
  -35.6456  -23.6597    3.1512   H
   38.8442   48.1391    0.3642   S
   49.9813  -14.8458   17.1710   S
   39.5820   14.1609   12.9151   C
  -11.1182  -47.7739  -28.6728   N
   24.3850  -19.9426  -34.5796   O
  -23.3475    0.6565    7.9426   N
   49.3408  -45.0513   49.2838   N
  -14.5925  -11.8967    2.5059   S
  -17.9974   -5.6900    1.2524   N
   -8.6210   17.0221   31.2823   H
   34.8263   16.3252  -45.1224   C
   21.3238  -34.7302   29.7351   N
  -23.0627    6.2829  -48.0875   O
   43.8063   42.8354  -43.6244   N
   30.6439   14.8263   46.1760   H
  -22.3594   13.5747  -13.9162   H
  -28.7083  -44.2922  -27.6396   O
  -12.8297  -39.0392  -38.2925   O
   22.7498   48.4459  -14.5019   C
   45.8416  -24.7470    7.1537   N
    8.2022  -25.8934  -38.8201   N
   17.1241    0.9118   47.8705   N
  -46.3349  -29.7402    5.5233   C
   38.3047    6.9059  -31.7414   O
   27.3201  -49.1260   22.1690   C
   17.1836  -30.7820  -19.5164   O
   35.3787  -31.7725  -43.9370   C
  -39.5680  -21.3191   13.7058   H
   -2.0907  -37.7749  -18.1911   C
   49.7772   -3.1124  -49.0228   N
   -2.5517   29.4585  -46.9703   C
   35.2073  -42.4457   19.5950   H
   33.4247   -1.3249   31.1354   S
   10.5712   -9.0467   33.5630   O
   -2.9234    8.1649   34.2259   O
    5.2363  -25.2826   -6.6159   H
  -31.6851   49.6265  -43.1690   S
   40.3871   14.7535  -12.9029   N
    3.1930  -37.3475   -1.3025   C
  -27.2029   29.2688  -30.3473   S
  -11.8449  -16.0671   -2.5926   C
   -2.6796  -10.7463   22.5225   N
  -14.7907  -12.5932  -33.6087   S
   -0.4444  -37.4097   13.6398   N
   33.6397  -24.1777   41.9274   H
   39.9996    5.8735  -24.2333   S
  -32.1887  -36.0779  -36.4329   S
  -16.5405  -10.1292  -19.1880   N
  -32.7802  -25.1197  -14.7606   N
  -29.0241   -1.5263  -14.1641   O
   19.0909  -46.2326  -19.3708   H
   -7.6074  -26.4887    6.1863   S
    9.6481  -21.1733  -28.3650   H
   10.0692  -40.4779   12.9750   O
  -46.9683    2.9590   -6.2320   O
    5.0734  -26.3212  -36.5985   O
   49.9451  -17.4469  -16.2756   O
   34.6507   22.0782   22.3076   N
   39.9921   16.5040  -22.1310   N
  -45.7825  -44.9859  -32.1321   H
   42.4433  -22.7742  -36.1710   O
   26.7307  -26.0381  -15.3852   H
    5.5923   11.1616   26.8078   O
   38.3330  -20.0625   34.6354   N
   37.2714   27.0172  -29.3469   H
   14.7904  -17.0454   38.7973   H
  -25.1561   34.9779  -44.2172   N
  -18.4033   23.4357  -26.9054   N
   17.3008  -44.4122  -43.0327   S
   41.4251   -7.1337    1.3585   C
   41.2909   42.3666  -11.5814   S
   -5.9581  -32.6300   37.6270   N
   48.6706  -33.9350   18.1642   C
   35.3459  -40.2057  -26.8011   S
   23.8692   26.6564   40.0015   C
   33.2894  -20.3864   32.8697   S
   23.4334   20.0422   43.8148   C
   48.0179  -45.5444  -30.4397   O
   47.7709  -26.2912   37.3345   N
   23.1591   41.5459   43.7127   H
  -44.8631  -15.7802  -42.9537   C
  -47.2560   44.7037  -27.1187   S
  -49.9907   -5.3833   40.8849   C
  -15.3646   -4.6600  -45.7756   S
   42.6545   -3.3706    6.2754   C
   42.4214   40.7847  -10.1323   S
   23.0664  -12.9594   12.3536   C
   38.9188    8.2711   43.2250   S
  -49.8193   47.8825  -28.3110   H
M  END
$$$$
