Generated Ligand
Programmatically generated
Comment line
100  0  0  0  0  0            999 V2000
   28.2057  -30.1782  -35.1018   S
   13.2656  -45.0037  -31.9771   N
   30.3624  -18.1155    3.2625   C
  -15.8190  -17.0224  -21.0932   C
  -23.3484   45.3755  -34.0801   S
   40.1410  -26.8195   19.0045   O
   17.6733   28.1281  -33.3240   N
   27.4228  -28.9411   29.1664   S
  -28.9253  -12.3231   20.8771   H
  -40.7821   -3.3871   13.1377   O
   27.0362   40.2897  -12.6234   H
   26.0464  -25.3410   -6.0112   C
  -45.1252  -14.9429  -12.9651   H
  -41.2271   48.8082    9.1497   O
  -39.4823   -8.0889   45.4631   C
   34.5123   -5.7056   38.7697   N
   -3.0438   23.1125   35.2863   S
  -48.0695   31.8543  -11.3767   H
    2.1288   -2.7119  -25.7987   N
   17.0612  -13.2578    4.6383   C
  -21.7374    2.2558    5.3501   S
   49.5686  -22.3545  -31.5803   N
  -47.4711  -47.5526  -25.4218   O
   16.7465  -25.0136  -46.5935   S
    6.3126  -33.3239   17.7086   H
  -37.3320   27.4177    4.2464   H
    7.7091   -5.7797    6.9554   S
   22.3290  -46.6382  -29.5069   S
    1.3983   14.6649   -4.2351   S
    7.9304  -39.3672   -7.0864   C
   10.0971    6.5519   36.6010   S
   31.2246  -46.8618   37.8952   S
   -4.4179  -34.1927   15.1622   C
  -47.9628   10.4752   29.6446   N
   -1.1248   26.2728   11.6219   S
   38.4687   24.7003  -17.4123   H
  -19.7734   -8.0554   26.1360   C
   -0.7499  -31.7216   46.8163   H
    0.6732   20.2054   28.1680   N
   47.4601   17.9044   49.5719   H
  -37.5615  -40.1512   29.6595   C
  -13.2876   43.7939   15.8595   N
  -44.8631   24.4260  -14.7733   C
   17.0264   20.2683  -47.1691   C
   17.2164  -29.5498   -2.2048   O
    8.5550   42.2736  -26.3932   C
  -22.3481   19.5896   18.6234   H
   23.0588   22.9018   16.3455   C
  -34.7734   12.1946    3.6983   N
    0.8805    0.9548   46.8229   N
  -30.7727   15.4774   18.0982   H
   38.5661  -29.2971   16.7340   N
   11.4861   47.9105   16.6332   O
   36.3694   44.1194   15.2923   N
   -5.2952  -19.7580  -24.5685   C
   32.5652   28.1008   24.1846   N
  -40.8971   25.1696   23.9223   C
   13.6675   32.7601   29.3461   C
   48.9960   28.4677    5.4186   H
   -8.7161   41.6457   25.3821   N
  -27.6569  -25.8130   12.6881   C
   36.1171  -32.3928  -11.7787   S
   11.2231  -39.9763   17.1150   N
   33.2384   -5.7684    0.0637   H
   -1.4498    7.1858  -12.2162   C
  -31.0433  -39.6025  -40.6503   C
  -18.3229   -6.5787   27.4169   S
   25.9347  -39.2778   -1.2524   S
   -5.7515   20.1416  -43.2878   N
    8.1837   10.5498   -5.0275   O
   -2.9561  -19.8154   -1.0980   O
  -11.6286   37.8542   18.5074   O
  -27.3443  -22.2371   23.9116   O
   11.6957  -23.4594   -3.8703   C
   20.6387    4.0596   -7.5707   S
   -9.9172  -44.9403   -8.2630   H
   42.6482   -9.8145   -3.5620   H
   13.5703   35.9571  -10.6372   O
  -38.0033   14.6127    2.0769   S
   45.3713   -3.1958   13.1897   N
  -21.0872  -31.1410  -11.2238   C
  -18.8383  -46.8864   46.4248   S
  -22.7373   14.8437   21.8121   N
  -21.2872   26.5080  -11.9916   S
  -24.9473  -14.2670  -12.1062   S
  -44.4983    5.3461  -37.7694   C
  -14.0918   -2.9977  -23.5780   C
  -38.0243  -38.7378  -42.9731   C
  -29.9347  -23.2698  -36.1279   C
   16.3403  -32.0502  -10.0309   N
  -33.6065   -5.7123  -24.0904   S
  -15.5205   33.6843    0.9357   H
  -27.3029  -40.5609  -44.3663   N
  -38.5182   -1.1756  -20.2603   N
  -27.0057   -4.6209   14.7932   S
  -31.0464  -33.4972  -18.2613   O
  -17.3330  -27.5483   31.9332   N
   12.2600   26.1954  -38.3789   C
  -21.6783  -28.2352    0.2654   O
   43.6987  -48.6826  -13.3238   H
M  END
$$$$
