Generated Ligand
Programmatically generated
Comment line
100  0  0  0  0  0            999 V2000
   28.0138  -22.7876   14.0890   N
  -47.4023  -14.7361   -1.2308   N
  -10.3818  -27.1587  -34.6538   H
   19.3427  -20.6175  -26.6792   S
   36.7757    2.4575  -28.3139   H
   40.9296   -7.7370   -4.5188   C
   38.1058  -17.1070  -11.1971   O
  -19.4279   39.9796    3.4474   O
   19.8317    2.9458   34.2951   H
  -45.1809   13.2541  -28.4523   O
  -22.3064  -32.0831   36.2867   H
  -23.7584   31.2710   39.1099   S
   -4.8390  -17.8320   37.0160   N
   37.5911   -0.3617    1.9753   N
  -15.3123    7.9530   15.9998   S
   24.4819   30.0069  -17.6890   C
   27.5733  -31.5539    2.4696   C
    1.3372  -37.9233  -36.4135   C
  -33.1009   -6.5375  -27.6432   C
  -42.8177    6.1429   32.9639   H
    7.9746   -8.9607  -41.9912   S
    3.5829    8.1276  -29.1445   C
   35.3455  -49.3359  -41.6981   O
  -44.5973   44.3947  -26.8455   C
  -40.2487  -44.5712  -31.4484   N
   -6.1081   37.0952   -2.9851   C
   46.6466  -37.3262   45.9254   O
  -19.8039   -5.3153   16.5116   S
   36.9225   49.7870    7.7142   O
   18.9437   23.2230  -10.7521   H
   47.1620   -3.9503  -21.2135   C
  -41.7039    6.2486  -10.5328   N
   19.2438   31.0374  -30.7863   N
   33.4115  -16.5482  -15.9418   H
   -1.3498   24.3932  -41.8061   C
   -3.6753   -6.8429  -29.3906   H
   37.1083   35.0068  -14.8655   S
    1.8031  -49.6057   36.1118   S
  -11.1623   19.4594  -18.0323   O
   16.4274   -8.3625  -17.0430   H
  -39.4180   32.9991   -5.9183   H
   46.4629   16.2460  -33.2144   O
   33.7588   -6.9453   30.8246   S
   30.8450  -23.8741  -48.8782   S
   28.6118   44.3385  -33.7231   S
   -3.9421   41.4512  -35.8109   C
   39.4855  -16.2624  -24.1241   S
  -20.9898   44.0491  -44.7667   S
    5.6062   28.7783  -16.8876   H
   40.6208   20.3224   18.4734   H
   26.0236   16.7750   25.7202   C
   11.6822   17.5830  -12.5001   O
    6.3070   26.4363   29.7647   O
  -35.8590   20.6376  -25.3672   S
  -11.6638   28.8550    5.4002   O
   33.2416  -43.8929   31.9544   N
  -24.2440   -7.7365   39.9488   N
   28.9768  -11.8689   21.7342   O
  -39.7153   17.0083   23.4356   C
  -33.1358    7.4558  -30.6750   N
   -7.2260  -11.3916  -48.1046   S
  -14.7257   -7.9070   29.3515   C
  -39.9680   45.9900  -33.7399   H
  -10.8429   -0.1799   24.6207   S
   -3.1259  -25.0490   33.7728   H
  -47.4562   -8.5487   -8.9136   N
   -3.5871   41.9589   14.8734   S
  -35.1350    6.9203   12.3210   H
   -5.6394   47.1279   47.6450   C
  -43.6536  -24.7635  -13.4703   H
   12.4847   20.4769   12.4458   S
   -7.4420    0.6489   23.2496   O
  -13.2301  -34.6246   39.5744   S
   25.8098  -28.5307  -21.3211   H
   -1.7353   37.5057   29.6258   C
    8.1084  -18.0092    5.8938   N
  -14.0837   22.3949   15.4200   N
    7.2883   16.9526   33.3587   N
   20.9991  -28.6668   32.5639   H
  -37.4153   27.1518   23.8791   S
  -23.0756   16.6947  -40.2441   C
  -32.4550   39.1537   23.1523   C
   32.0177  -43.5429   25.0803   S
   17.4561   43.7929   29.6794   N
   31.7039   18.5196   48.7112   C
  -21.5610  -36.1859    2.7945   C
   22.8186   12.5443    0.2713   C
  -11.2348   34.4509  -30.1141   O
    9.8438   -7.9744   -3.3300   S
  -29.9051  -39.8940  -46.8789   C
   32.1277  -37.8246    7.6524   O
  -21.5839  -41.8422  -30.7037   H
   23.0998   -9.4903   41.4780   C
   -8.8688   37.0364   45.7808   C
  -24.3943  -20.3924  -40.5535   S
  -13.6415  -27.7701    9.6907   C
   11.3317   39.9817   24.4767   S
    1.1494  -49.9637   33.1614   S
  -10.4851  -49.4955  -12.8251   H
   -8.7632   30.1387  -24.2356   H
M  END
$$$$
