Generated Ligand
Programmatically generated
Comment line
100  0  0  0  0  0            999 V2000
   15.9601  -19.3849   29.1860   C
  -29.9018  -27.1961   39.0758   N
  -23.5985   29.2597  -18.8923   O
   -6.2696  -47.9040    6.8660   N
  -31.0796  -14.2025  -30.0845   H
   20.8429  -14.6783  -24.6848   H
   44.6384   18.5915   18.1361   C
  -26.6438   43.7229   13.1303   S
  -26.6577  -38.2721  -35.2815   H
   -9.5540  -41.0072    9.3370   H
  -45.9508    4.7220   19.9625   O
   35.3116    7.9290   18.3202   C
   43.7116   12.8437   24.8189   C
   27.0021   49.3984  -21.5797   N
   41.6443  -26.2864  -48.2799   O
   -9.9424   23.4458  -29.3814   H
   14.5604  -33.2432  -41.3633   O
   22.0489   45.6491  -15.2574   N
  -23.2052  -26.9153  -10.1301   C
  -31.3170  -22.0587   41.5202   N
    3.0346   31.1842   24.1850   H
  -26.5105  -45.4922  -21.2327   H
   13.7934    9.7104   31.6881   O
   19.4225  -31.3560  -10.1408   S
   -0.5238   22.2895   11.6632   S
   -4.4425   17.4535  -31.8993   C
    5.6639  -24.4855   48.2268   S
   39.6681  -15.7661  -28.7734   O
   14.2462   16.4685    3.5597   O
   34.6286    8.3398   49.1542   S
  -45.4361  -15.1466   16.8601   C
   13.2060  -41.8471  -33.6431   N
   36.8936   38.7886   40.2961   O
   19.2619   27.8240  -33.5002   S
  -12.4195   44.7130   46.6350   N
    1.6987   13.8256  -45.0207   S
  -41.4093   -9.9293    9.7936   N
  -15.8536  -44.5027   -5.4598   O
   37.3667   11.6066   13.9779   S
   10.6309  -45.1555    4.6114   C
   42.6801   -8.3909   -5.9667   S
  -44.5328   16.7415   45.6640   N
   18.5629   -3.2544   26.2251   O
   16.8633  -23.1697   21.6998   C
   32.6500  -32.7970  -49.1642   S
   27.4815   45.9200  -24.7427   H
   34.0474    3.5905   -1.3572   N
  -19.1084   36.4929  -27.4546   H
  -10.1632   24.6632  -17.3832   C
   -6.2770  -26.6211   -1.4182   C
  -18.5605   19.4285   14.6363   S
  -14.8982   -8.9850   14.6478   O
   -5.7436   30.0126  -15.2831   N
   -2.5183  -44.9618    6.7258   C
   -1.3767   25.5818  -41.8267   S
  -22.3733   45.9672  -45.2478   S
   37.2666  -12.0866   12.3936   H
  -18.2142   35.8475   28.4715   N
   -4.7436   24.6543  -11.2118   S
   -2.0461  -44.7097   26.5472   N
  -42.8461   34.7904   40.8414   C
    9.2437   10.8700   48.9001   H
  -31.3602   17.0796  -23.6875   S
  -18.9131  -37.9202  -45.3709   C
  -14.6983  -34.0227    5.5548   H
  -13.5268    2.3651   34.8681   O
    5.6703  -12.7709  -34.4267   S
   21.8541  -20.5753  -41.8190   H
  -30.9557  -45.9020    4.8737   C
   47.6255   37.7798    2.5708   N
   29.7411   12.7848   33.8618   H
   40.3109   46.1918   21.1730   S
  -49.4705  -12.4139   32.1042   O
  -13.3840  -21.1154   27.1308   S
   16.7528  -28.8759   42.7613   C
   -8.1965   -1.4450  -42.0828   H
   20.2645   15.7333    4.9298   S
   49.8848  -49.0954   13.1704   O
    1.8857  -35.6359   34.0976   S
   23.3049   39.2648  -13.6896   N
  -44.4161    5.4551   36.4987   O
  -47.8837  -25.0634  -41.1348   C
  -14.7773  -49.0914   -0.5779   H
   -4.6861   21.5640  -45.8127   N
  -24.1609  -10.1170   20.8501   N
  -17.5397   29.1303  -43.8324   N
   -1.6435   49.9363    2.3293   O
   49.2191   49.2918   37.3074   H
    6.9077  -41.5030   37.3266   S
   15.6008  -12.3045   22.0464   O
  -17.2312   -2.7319  -17.0638   O
   -0.5774   33.2707  -44.8091   S
  -41.9268   29.0298   -2.3615   H
  -11.9607  -18.9956   -6.3612   C
   32.2542   19.6014  -18.8749   N
  -32.3807  -13.4705   -0.0838   S
   -5.4793  -22.2957  -42.9452   C
  -19.1747  -20.7728   32.3957   C
  -29.9628  -35.3280  -35.2941   C
   14.1740   40.9505   48.8957   S
M  END
$$$$
