Generated Ligand
Programmatically generated
Comment line
100  0  0  0  0  0            999 V2000
   21.8603   -9.5781   -5.0149   O
   32.9158   16.7954  -13.5747   S
   31.7607  -44.2175   30.5409   C
   37.9114   38.5641  -45.5808   O
   24.0562  -41.4771   25.4861   C
   -9.5047  -19.1321    4.6304   H
  -17.8201  -45.5144  -49.4290   C
    7.0016    4.6384  -29.8884   H
    6.5057   25.3258  -30.5834   H
  -29.8186  -18.1607   17.7858   O
  -49.8969  -32.5960   26.4113   H
   16.3305  -10.9643    0.2766   O
    2.5908   -1.3457   31.3439   O
  -48.5507  -31.5811  -29.8958   N
   32.8158   34.5018   13.9734   S
   26.4402  -40.6546  -14.1833   H
   40.7770  -47.6934    7.2259   S
   26.7839   33.0825   20.4544   S
   -4.3876  -20.5353  -30.3347   H
   -3.8677  -14.1152   35.1022   H
  -39.3057  -17.2285  -12.1436   C
    4.9706  -48.5428   -0.5059   N
   39.4084  -33.7914   46.6690   S
   28.3221  -44.3298  -10.2778   S
   -2.2955   38.9135  -17.7538   S
   -8.2142  -24.8618    9.6952   N
   48.4550  -39.6672  -34.7418   N
  -30.7953   -3.1380  -48.6697   H
   -4.0630   18.4616  -28.2602   N
   11.9145   37.1847  -10.0508   C
  -27.6036   -6.3848  -31.0711   O
  -46.7329   -6.0018  -26.6829   C
    4.4931    8.4803    7.8173   C
  -20.5112   18.7455  -49.4003   O
   26.3124   29.5271   22.5259   N
   44.8834   28.9074  -35.0481   S
  -42.0116   11.4399   -4.4649   H
   49.5395   45.1969  -47.5232   N
  -30.6945   -4.4496  -32.1367   S
  -39.8227  -40.4191  -29.4011   N
   18.3958   10.4396    2.4668   S
  -27.0286   -0.6868  -26.3804   S
   26.7990   32.5171   -9.8061   C
    8.8316  -44.9757   44.7710   N
   41.6299   13.8690  -10.2549   H
   34.7060  -27.9554  -47.9369   N
   13.2469   42.3381   10.0576   C
   43.2812   -0.5460   22.3115   H
   24.0334  -28.2080  -10.6275   N
   19.8064    3.7400   28.5226   S
  -26.1432  -30.8100   20.4981   O
  -42.6911   11.3516  -43.2030   O
  -23.3797   14.2950   48.7536   S
  -21.8773   45.0845   17.5263   N
  -45.9146   40.8297    5.6473   C
  -32.3223    2.6380   41.5096   N
   43.0798   13.7092   10.6543   C
   47.3765  -28.2601    0.9549   H
   27.6123  -13.1426   23.9833   S
    2.7405   47.3248   21.4483   O
  -44.3970   45.2812   24.1228   N
   48.4700  -37.9709  -38.0469   S
   -6.7178   41.9162    0.5487   N
   22.1109   43.1710  -32.7689   O
   -2.7897  -49.7177  -37.3792   S
   -1.0839  -46.1841   -6.3264   S
   41.2836   -4.0541   -9.4888   N
   -5.3144  -46.3587   16.7600   H
   23.1753  -28.6153  -26.4205   C
   -9.4379   39.8404   -9.8348   O
   19.5749  -41.3089   36.8706   H
  -20.9574    8.8655   15.7913   C
  -25.9021  -34.3615    6.1094   O
  -28.3039  -21.6474  -24.5560   H
  -17.3295  -44.9734  -36.8836   C
   46.5838   29.6311  -46.5337   C
  -46.2703   41.7105   12.8616   C
  -42.0601    9.2560  -31.7714   S
   -1.3938   -4.0676   49.5142   S
  -47.9287   -4.2212   -5.4077   N
   30.4837   38.3535   27.5662   O
   10.8978  -37.4426   10.9775   H
   48.6196  -15.5281   -7.5397   O
  -14.4206   -0.1253    7.8322   O
   46.3882   12.5720    3.1378   N
  -31.6903   44.6252   21.2761   N
   46.2484   10.3496  -44.2346   N
   -2.0334  -38.1634  -30.5422   N
   48.2602   -1.1894  -48.0107   S
  -33.1051  -18.7300   41.9240   N
   35.9247   23.1327  -41.6600   C
  -12.4373    9.1223  -34.9711   S
  -18.9718   45.7474    2.4787   S
  -35.9944   -4.9970   -4.0481   C
   43.9895   18.7146   11.4820   H
   35.4978  -11.1047  -11.0485   O
  -17.2059  -41.8313   31.9822   C
  -23.7311  -19.7934  -26.7331   O
   45.4196  -30.5353   10.1441   N
    9.1451  -20.3007  -13.4897   O
M  END
$$$$
