Generated Ligand
Programmatically generated
Comment line
100  0  0  0  0  0            999 V2000
   24.3981  -27.6690  -26.8116   O
   -6.7872   38.7413   19.8402   O
  -40.3861  -21.5911    8.1297   N
  -20.6185  -48.5371   27.0226   S
   -3.1611  -39.0158   22.6966   H
   11.2037    9.1941   -1.4117   S
    6.6462   18.4912  -46.5516   H
  -32.5611  -27.8628  -30.4605   S
  -30.9939   33.7873   32.8739   C
   -9.1248  -39.2474  -41.5145   S
   14.7813  -22.5070  -43.4996   S
    5.1693  -22.8760  -31.1565   H
   11.4204  -28.2836  -36.8295   O
  -47.6320   19.5096  -13.5239   C
  -48.0017   -6.7003  -22.1717   N
  -37.0455  -47.4150  -17.9954   H
    0.8891   25.0275   17.3522   N
   -8.3576   24.1606  -13.5117   O
   48.7439   23.1702    1.0228   O
    0.2304  -40.9952   36.4366   C
  -19.2337  -16.1064   33.5778   O
   -6.0142   41.1740   34.5016   O
   43.1284  -33.4133   22.2865   H
   35.1792  -31.6623   47.1108   S
  -27.4599  -38.6448    7.7102   S
   10.6980   36.0919  -42.9057   H
    0.3211   -9.2743    3.0485   S
  -42.2800  -33.6596  -14.7247   O
  -41.9273  -35.4895  -36.7265   N
  -16.5129   16.9235    7.8096   C
   49.9496   20.5624  -10.3047   C
   27.8249  -44.2005    7.9320   H
   26.9537  -14.1923   46.5281   N
  -28.1004   21.9221  -32.5069   N
   19.2300   10.7855   26.8768   C
    6.9271  -33.7018  -42.7424   O
   41.0822  -21.5204   11.4862   O
   -0.9184   38.4500    2.1029   H
   23.9900  -12.5610  -15.1089   S
   25.1205   31.6208  -29.1795   N
  -45.1505   40.9106   11.9307   O
  -29.7963  -43.8706  -29.2074   N
  -42.7558   47.0077  -10.0612   O
    0.3235  -13.7891    8.1011   S
   23.7928  -28.9692  -42.3196   C
    6.5337   -6.6083  -42.7717   O
  -46.4568   45.5015   43.7207   O
   28.0825  -33.7231   34.9071   O
  -29.8042   48.9887  -34.7822   C
  -36.5212   -8.9101   21.8681   S
  -11.4999   45.7509  -36.0501   H
   -4.2644  -17.1859  -23.9064   N
  -20.6150  -21.7469   31.2947   S
   -7.6430  -32.3590  -27.2047   S
  -40.0409  -38.8318  -48.5549   H
   42.8185  -25.7554  -18.9245   H
   34.5809   19.3782   27.0195   O
   -9.6810    5.5178  -18.9711   C
    7.7473  -15.4287  -37.4443   N
    7.4728  -34.6898   -4.3930   S
   26.0143  -44.3163   20.8402   N
   14.2743   30.0804  -43.3810   O
    3.7869   14.7695   34.0694   S
  -21.1977  -12.3194   15.5160   N
  -27.7615   17.9377   -1.9722   C
   -2.3846   -7.7759  -17.1849   O
  -33.5756    6.2262  -41.3877   S
   25.9925   40.4900    7.7827   C
   47.7008  -25.9835   28.6706   C
   43.6918    1.6258  -15.9239   S
    7.9358   29.9550   14.2306   H
  -27.4275   -4.6795   30.2758   C
   -7.0391   15.0554  -42.0317   N
   11.6779   48.0121   -0.2014   O
   -0.0953    6.4812    8.4152   N
  -31.6775    5.3565  -41.1268   S
  -31.1288   19.1517   10.2090   H
   17.5972  -45.9221   20.0604   N
    4.4290  -43.9438  -20.3649   N
    1.5160  -19.7404  -23.7778   O
   -4.8016    0.3886  -29.7469   N
   37.6516    1.8388    2.6852   C
   19.4089  -48.5307    6.4206   N
   48.6085   17.6696  -38.2293   C
  -27.1709  -42.0862   18.0891   O
   -1.7745   24.2425  -41.5196   C
  -11.8515   22.2142  -42.8242   C
   29.2694   49.0880   21.8807   C
   -9.8335   -7.4627   12.9412   S
  -41.3050   27.6440   12.2525   S
  -35.0510   20.0694  -13.5915   C
    3.0952    2.6282  -35.4470   S
  -23.3124   18.1968    5.5004   N
  -18.3578   33.3513   21.2997   N
    2.7024   46.6000  -16.6774   C
   19.5020   -7.0509   -6.1186   N
  -24.5751   21.3543   17.2022   S
   20.2053  -22.5424   17.2311   O
   -5.1038   29.5359  -49.3048   C
  -47.2675  -48.7447   -3.5646   O
M  END
$$$$
