Generated Ligand
Programmatically generated
Comment line
100  0  0  0  0  0            999 V2000
    0.6286   -6.8803   33.1951   S
   46.7558   12.8310   -7.1002   C
   49.7701   35.7094  -35.4175   O
  -47.2087  -22.0073   12.9724   C
  -19.8525   -9.1894   -1.7621   H
  -23.0542  -47.3437   -5.2723   C
   18.3305  -40.4705  -12.2640   C
  -23.8494   44.1732  -11.1823   O
   33.7777   41.3702    2.3001   S
  -20.3625   18.3464   42.9412   C
   -1.4448  -24.2030  -11.9845   S
  -46.4981  -13.5563  -47.2181   S
  -40.2295   -8.9011    1.3038   N
   -6.9874   48.6865   28.1952   S
   22.2648   -2.1223  -13.8396   S
  -37.1902   29.3669    2.9125   H
   21.0014    6.1003   29.9831   S
    4.4276   35.6541   -1.5403   S
   33.1491  -42.7432  -31.2669   H
    1.3721    3.5733   37.7645   O
   36.0617   36.5612   46.5354   N
   31.8218   28.7940  -14.1776   H
  -29.8830  -47.8851  -33.3752   H
  -35.0048   20.7023  -46.1342   N
  -15.2543  -34.4221  -30.0740   C
  -15.2883   -5.3987   17.9437   H
  -14.7257  -21.7792  -45.0525   O
  -10.7882  -37.6627  -45.3056   C
  -21.8539  -17.0004   -7.4183   S
   23.6757  -29.5982   48.9960   H
   -9.7813  -27.3953   42.6217   N
   18.9505  -21.9872  -22.0758   C
  -33.9637  -46.1945   31.2828   S
  -27.9823   19.6148    2.1817   C
  -14.0639  -31.2139  -21.5207   H
   -9.0839  -47.0327   32.3318   S
    7.3110  -17.7757  -19.6171   S
  -22.4667   46.0601   -5.4762   C
  -19.7568  -37.5810   -5.8857   S
  -29.1998   45.1166   20.3476   O
   36.8883   -3.1510  -43.7081   O
   33.5548   13.8786  -10.5895   O
   22.0981   39.6405   15.7895   C
    8.2723  -20.2666  -19.1073   H
    4.5670  -33.1739  -33.5452   S
   17.9725  -48.6703   13.6732   S
   30.3325  -32.1804    0.9826   N
  -33.0131    5.8006   32.4238   C
   23.7841   -3.6953    3.7868   O
   20.3951   26.6252    3.4856   H
  -33.5197   28.8589  -11.8838   S
   12.6321   37.2308   -9.3752   O
   31.0631   41.0068  -49.5187   S
  -12.4884   29.4677   31.0339   C
  -12.0103  -37.9144  -42.5907   N
    4.0142  -38.7129   11.5829   O
   12.4118   26.7041  -34.4760   H
   20.2286  -45.2582   18.9516   S
   26.9006   49.7784   16.6273   N
  -38.0176   -8.2742  -35.9206   C
  -38.5790    2.6709  -16.4636   C
  -49.4517   33.3776  -23.0390   C
  -24.9036   -5.6200   24.0849   O
  -10.1149   39.3442   10.9424   C
   45.0785   -6.7229   46.2262   O
    1.8559   -8.3718  -49.8881   O
   -7.2765   14.5636   16.5333   H
   -5.8576   11.3749   14.2212   N
    2.6831  -39.5101  -14.7992   H
   49.6090   22.9726    5.9380   C
  -17.5887   48.6134  -18.6966   O
   20.7940   35.9206  -36.7464   H
  -44.4399  -36.1281    9.4120   N
   18.0749  -32.1496  -31.4249   O
   11.6157    4.7290  -36.8665   O
    1.1702  -12.8273    5.8687   S
    2.0545   44.4434  -31.6009   N
   42.9728   -9.2428   23.0559   S
   15.8659  -19.3198  -45.3505   H
   39.5643   45.8168   -1.1461   N
   17.6962   39.8522   49.4234   N
   17.3251  -42.3353    4.4236   C
  -47.3302    2.3773  -18.3620   H
  -25.1339   -8.7715   -9.5687   H
  -40.3866  -36.2763   36.4982   S
    9.7192  -37.5956   46.8550   C
   -5.6941   13.1751  -12.6684   O
   22.7230  -14.2372  -45.9482   N
  -19.6373    6.1921    3.4507   S
    5.8706   48.1032  -27.7782   N
  -10.9550  -10.8268   26.1142   S
  -47.7345    7.5402   43.0955   S
  -31.4189   37.1991  -33.3135   C
  -24.5352   30.2596   43.0765   C
    5.0144   49.9547   46.0519   N
    4.3253   35.7791   45.6166   H
   -1.8273   -6.5625  -34.5902   O
  -31.7825  -19.4553   -1.6895   C
  -28.1141   26.1026   15.8972   O
  -15.4992   -2.6883   29.0806   O
M  END
$$$$
