Generated Ligand
Programmatically generated
Comment line
100  0  0  0  0  0            999 V2000
  -27.1459   -2.0146  -32.3466   H
   49.3685   43.0909   -8.4673   C
  -14.2951   17.1621  -49.6227   S
   44.6413  -10.6836   -7.7969   O
  -19.1649  -49.8548   40.9776   H
    5.2769   -1.9036  -42.3071   O
   10.3568  -18.0219   -4.1171   O
  -23.4959   28.8607   -4.0821   N
   30.4780  -17.0526   46.3659   C
  -10.1981   -9.7465   12.5377   N
  -25.8335   37.6355   38.1140   N
  -44.3258  -44.4009  -28.3767   H
  -23.7554   -5.4337   27.2391   C
   31.5836   -0.9378   27.2888   C
  -14.4895   36.1258   30.3188   C
  -26.8309  -45.5501   21.4767   N
  -19.1224  -49.5012  -47.4384   O
   11.2887   45.6355   -0.1936   O
  -23.8689  -31.6542    0.6388   N
   31.0919    8.5270   29.9883   N
   -4.9140   28.6742   22.6941   H
   17.9291   13.5498  -24.3617   H
  -47.1860   14.3775   -5.7801   N
   -9.1246   21.5168    8.6071   C
   43.5613  -37.9433   24.2332   O
  -30.3292   37.3127  -28.6607   H
   47.8692    0.4324   32.3298   C
   29.5298  -26.4618   48.2696   O
   31.0286  -22.5870  -29.0945   C
   39.9505  -32.0799   48.9521   S
    9.8021  -35.7344  -34.6110   N
   47.8570   28.9379  -20.2452   O
   -8.6152   35.3289   27.0273   N
   38.6673   34.5822  -45.4830   C
  -33.9240  -28.3285   31.8434   H
   27.3518  -26.0402   14.6716   N
   36.9103   30.2844    7.1634   O
   21.1285   -7.8319   32.2882   O
    8.4334  -26.7469   34.2147   H
  -17.2429   -1.0125    3.2714   N
   36.8067   25.7004  -27.1012   O
  -39.8149   10.2617    9.9946   O
   28.1727    6.5839  -10.0836   O
  -15.5927  -30.1284  -46.4270   C
   47.1239  -16.2500   -1.9619   S
    9.2387   35.8020   27.0739   O
  -44.6905   -4.4911  -10.5089   S
    0.4368   25.9333   34.8042   H
  -32.6353  -49.8396  -11.0114   S
  -20.3659  -19.8392    4.9345   H
   46.6954  -32.4528    0.2981   H
  -46.2670   19.7317   -4.7488   O
  -18.6256   11.3080    6.3026   C
    5.1797  -23.8553  -27.8497   C
  -37.7461  -17.4951   32.7952   S
    6.4657  -21.4895   26.7523   O
   15.9425  -49.2296   42.9856   O
   48.1031   33.5783   47.4547   O
    5.5512  -37.0959    2.4176   O
  -34.2022   33.8591   19.1519   H
   36.2540  -14.6976   23.0037   O
    5.4148   -3.8910    3.2013   H
   21.6452   44.3800   19.5075   S
   -3.8700  -12.7021   -5.9855   S
  -29.4346   25.4381  -46.1646   O
    7.5405   14.8999  -44.9293   N
   49.1137  -40.0507   23.1953   S
   14.1011    9.0884  -39.6142   S
  -35.0705  -35.0329  -41.3964   O
  -43.9110  -43.9476  -24.1863   S
    0.1896  -43.2909    9.9703   S
   -5.0739  -24.5422   -5.6009   H
   20.1926  -10.5958    6.7653   C
   39.2449  -29.7257  -36.6541   N
   -1.3752  -37.4155   27.4235   H
  -20.7862  -25.7646   21.2173   N
   22.8517   -9.4883  -11.2104   H
  -37.3127   34.0644   32.3164   N
  -23.2418  -47.4151   41.1317   S
   15.5836   40.7544   24.4334   S
   44.0584  -37.0174   -6.5987   O
  -30.8070  -24.5247   -9.5371   H
  -30.3427   -9.4228   34.9504   C
  -43.0656  -12.5656  -26.3824   O
   42.6660  -27.8578   47.9900   O
    8.0137   34.6159   13.1091   S
   -9.4971   -9.8240    1.5268   N
   15.3293   -7.9631   35.8909   C
   16.8839  -24.4844   20.6461   O
   42.6089   28.5123  -34.4146   H
    9.4863  -22.4588  -20.4030   H
  -22.8338  -46.9982  -30.3714   C
   16.3460    5.1355  -45.0635   S
  -30.5995    6.6590   -1.5210   N
   37.0756   11.9401  -37.3558   H
   36.9250  -25.2716  -17.3156   N
   35.4742  -45.5038   40.6900   S
  -29.4713    7.6639  -24.0954   C
   18.7758   10.6843  -45.7932   S
    6.1979   12.4200  -44.2389   C
M  END
$$$$
