Generated Ligand
Programmatically generated
Comment line
100  0  0  0  0  0            999 V2000
    5.1900  -41.1102   12.1271   C
  -21.0712   43.6117  -14.5011   C
   46.7165   37.3523   42.2863   H
  -16.4464  -20.1451  -41.2080   O
   44.6738  -11.8685  -24.3195   O
   49.0902   26.9270  -31.0753   S
   40.9893   -2.8830   19.5735   C
  -43.9796   -0.8197   -3.1195   S
  -18.2714   48.4356  -10.8162   H
   17.9090  -18.3029  -27.0838   H
  -25.3587   49.6494   32.0339   N
  -39.7412  -49.2962   45.9920   N
   44.1070  -43.8545  -43.0066   S
   27.6135   -2.6371   -3.9479   H
  -43.7086   24.1690  -28.6085   H
    5.2023  -27.6866  -20.6998   H
   45.8040   23.0708   -2.7497   N
   10.5052    3.5648   29.0178   H
   46.2943  -16.2840  -28.4648   C
    1.5602  -43.1024  -10.8875   O
   42.1266  -37.1177   -2.6805   C
   46.6680  -49.5693  -33.6319   O
   -2.7261   28.8304  -33.1015   S
  -33.4084    8.7236   25.5258   C
  -41.8957   -5.4645   36.8838   H
  -43.1599  -10.4506  -30.8467   S
  -47.6608  -11.4136   30.5704   C
  -21.7158  -30.1797   40.4770   O
  -29.8989   45.9214   28.0045   C
  -28.7106  -34.2271  -35.7072   S
   28.0467   23.3850   48.0023   O
  -35.9188    1.5470  -28.7188   O
   24.5848  -48.8438   45.5925   H
  -34.5633  -46.7344  -36.4948   N
    5.1187   -2.1875   18.3829   S
   19.8452  -34.2819   14.5585   N
  -24.8318   -9.2683  -12.9738   C
  -46.9383  -13.1854   48.3918   C
   49.0193   23.9107   15.8217   C
   44.4797  -48.9103  -11.1205   H
   -8.6597   48.5778  -31.9460   S
  -31.5550   -3.5652   44.6251   C
  -12.8696   33.6403    3.2465   S
   -5.5685   49.6758  -18.8481   C
  -18.8989   18.5263   -1.2747   C
  -31.7031   -1.0736   47.6436   N
   34.3574   41.6824   27.9297   C
   -1.8136   40.1481   10.9745   N
  -36.7201  -47.9579  -11.6055   N
   41.7411   39.7582   22.9554   H
    5.3967   20.2674    8.2847   C
  -32.9417  -36.0902   31.2412   C
   10.1351   12.3136   13.2660   C
   49.7685  -22.6551    6.2231   O
  -40.8970    7.3468   48.5636   C
  -43.5889   25.2720   17.2067   O
   30.5698  -30.1368  -47.9651   H
  -49.2615  -19.9665   47.5860   N
  -44.8116  -27.4426  -19.7583   H
   31.6379   12.5680  -21.6339   O
   45.6167  -43.7144  -19.5200   S
   28.0569   29.5471  -19.2294   H
   22.1493   -5.3315    2.2802   C
  -27.0573   42.7286  -47.4924   H
  -23.9758   36.5661   45.4590   S
   16.9449    6.5357   39.8941   C
  -49.3014   -2.5869   11.0021   C
  -43.1091   41.1576  -12.8138   N
   18.8220   44.3902   32.7213   O
   14.8916   21.7737  -26.1180   H
   35.4960  -11.5461    7.9493   C
  -45.3960   33.0269   28.5380   O
  -39.8458  -16.9317   16.5297   S
  -35.1629   12.2359  -36.1139   H
   27.3351   -4.5111   25.4219   N
   -3.6259   31.0512  -48.1842   N
   30.1023   12.1299  -27.7621   C
   37.4728  -14.1035  -17.5640   H
  -31.7650   -8.0633  -25.8803   O
  -20.8195   27.3768   21.2510   C
  -32.7411    0.9352   24.2194   S
  -40.9668  -49.2913  -19.7487   S
   -5.7693   -7.7889  -46.0829   S
    8.0745   12.0708  -24.2297   N
    9.9755    9.0125  -13.3526   S
    0.6625   26.9763   17.9170   C
  -40.2750   16.5793    4.5462   C
  -42.9495   31.8233   -7.9308   H
  -33.5987  -42.3249  -38.8155   O
   29.2857   28.3500  -13.5184   C
  -47.5957   25.7124    3.6101   C
  -31.3816   -4.4450  -30.3373   H
  -12.7582  -35.8365  -31.1226   O
  -17.0835   21.9849  -46.0610   O
   41.3689  -11.6069  -10.7101   N
  -18.6556   16.6732  -47.2819   N
   29.2133    3.5306   37.6089   C
  -43.3569    2.9573  -32.4333   O
   15.9645   18.5642   -6.0374   C
   -2.7654   12.3050  -21.2237   H
M  END
$$$$
