Generated Ligand
Programmatically generated
Comment line
100  0  0  0  0  0            999 V2000
   36.9494   25.7831  -11.8441   S
   28.5899   47.6139  -27.9556   O
   -2.3852  -10.1937  -32.4011   O
   49.4768  -21.6362   15.5880   N
   34.1619    6.2993   25.3734   H
   43.8642    5.1107    4.8822   S
    8.1518   24.4214  -28.7831   O
   18.2401  -27.8272   -5.2198   C
   17.4571  -35.1315  -27.1956   O
  -18.0349  -24.5530   13.2063   N
    0.4090   13.5462   39.1398   C
  -28.6254  -46.6089  -11.2047   N
    7.5673  -20.1136   41.8650   C
   46.8413  -27.1250  -18.1782   N
  -33.2610  -10.8098   -8.9981   S
   47.3319  -47.1214  -49.2101   N
  -18.3461   12.5823  -17.2913   O
   16.8123   -1.7875  -35.8649   N
  -14.1482   46.5453  -13.1964   N
   23.7796    3.5396  -18.8128   N
   -2.7835    7.4336  -44.0459   N
  -13.1178  -33.1240  -25.0344   H
  -45.8419   -6.0751   12.4470   N
   15.1013   14.9165    3.5305   O
  -29.8157  -49.4382   34.3880   S
   25.0397   -6.2677   30.0079   C
   21.4422    4.2101  -36.9088   O
   43.0669   39.3828   48.2335   O
  -24.9812  -16.5446   11.1526   O
   17.8074   24.2851   -4.5577   N
  -18.8542  -23.8776   25.2482   S
   34.9208  -36.4003  -34.5618   C
   16.4095  -41.3403   28.6467   H
   40.3404  -28.0131  -15.4263   S
  -26.3581   20.0423   -4.1731   H
   41.9607    0.6492    3.7273   S
   24.6199   -2.0304    9.1977   N
   21.6312   -9.4284   11.9125   H
   -1.5922  -41.7025  -47.2186   H
  -37.1732  -13.2478   -4.2059   C
   41.5184   36.3358  -28.6654   N
   -3.0138    3.8657   37.9630   O
   33.5539   -3.2987    3.4383   O
  -24.9511   32.5614  -17.4538   H
  -46.4699    8.8008   27.9563   O
   13.4058  -41.5599  -17.3484   O
   -2.8050    6.7804  -19.0358   S
  -13.3254   18.2571   34.2212   C
   39.4486  -13.0175  -27.4321   C
   49.9504   20.9917   35.3152   H
  -22.7529   41.4780   40.8614   N
  -34.0701   17.6541   45.1372   H
   20.7739  -23.8166   33.3789   O
  -12.3903  -25.2611   28.1811   O
  -31.6281   37.6946  -25.7443   H
   23.3027   24.0113   -2.6555   H
   27.1184    4.2314  -30.5199   S
   11.8833    4.6732  -44.2329   H
   37.8764   35.5530   23.2903   N
   49.2693   35.5625  -37.7766   H
   48.2824   37.6066  -41.8863   C
   -3.1663   44.1664  -33.6292   S
  -19.8483  -39.0035  -34.4651   H
    8.2229  -43.2806   18.3045   H
   -9.5746   -2.1808   -0.5807   C
   44.3227  -21.1771  -31.3693   N
  -33.5799   12.0519  -10.0901   H
   21.1282   11.5169  -17.4181   C
   35.3882   49.6323  -41.6017   C
    2.5514   49.1424   -9.4051   N
   24.5111   41.0859  -48.4015   S
   13.5672  -18.8148   -0.3280   S
  -26.9656  -33.1594   10.4990   S
   11.4356  -48.3155  -23.0420   O
   -1.3049  -15.4115  -44.2233   N
  -33.8980  -25.8972    6.6526   S
  -39.4005    3.5748   11.5708   N
    5.6360  -14.7262  -27.6865   H
   25.3399   46.8008   23.4840   H
    2.6443  -48.1663    0.9057   O
  -14.7359   45.4815   24.0588   N
   49.1292    5.7999    0.4769   S
  -31.3058   12.5118  -45.4032   H
   27.7660   17.9957   32.7526   O
   29.7894   36.5914    0.7821   S
  -10.4867    8.5486   28.0913   H
   -9.5015   13.3421    3.3830   O
   -0.6712   23.4694   32.2746   H
   28.4714   12.7618   18.1233   H
   49.9979  -34.6245    3.0847   S
  -27.9297  -17.6531  -34.9011   S
  -30.9411   39.7022   13.3095   H
  -43.0138  -30.7675  -28.6511   C
   29.4870  -46.3527   -5.8601   N
   16.5485   15.9932  -16.3741   S
    5.6081   36.3873   16.7027   O
  -26.3565  -14.5347   17.4500   S
  -18.7309  -47.7844   21.6760   O
   27.0677  -43.2856   39.6990   O
  -13.9419  -16.9266  -49.7656   C
M  END
$$$$
