Generated Ligand
Programmatically generated
Comment line
100  0  0  0  0  0            999 V2000
   25.0132  -17.8713   26.7157   S
  -48.3775   -4.1178   27.5637   N
   14.4484   41.8169   28.6340   N
   15.1537  -39.3613  -28.3257   C
  -21.0887  -11.3141  -32.0453   N
   49.9079    5.7265    0.5949   H
    0.2823  -47.9055   35.4504   N
  -23.3810  -10.2173  -43.8495   S
  -11.9682   15.4098  -32.1129   C
   37.8550  -31.6147  -14.7911   C
  -36.1573    3.6772   13.6274   C
   10.9034   11.9642   26.4787   N
   19.3840   -7.8849  -35.8813   H
   35.0705   31.8881  -27.3391   H
  -15.2410   18.4770  -31.1501   N
   32.8968  -30.6270  -33.5004   S
   -7.7640  -44.8848  -45.2096   O
  -48.8759   -9.6346  -35.6326   O
    6.8290  -30.6299   33.6567   H
    9.5578  -35.0699  -34.0844   O
   43.5610    9.2505  -17.3049   O
    6.6582  -18.7126   40.9888   C
    5.6901   35.8336   -1.9644   H
   13.6397    7.7187  -33.3292   O
  -30.2919  -24.0600   19.0914   H
   34.9642   29.2027   49.0991   H
    7.5360   42.1516   -6.8343   O
   -0.6890   47.1376  -21.7061   S
   -6.0885  -10.5588   43.8097   O
   48.2733   -0.6028  -47.1551   H
   42.0799  -23.4708   18.3083   C
  -49.8917    1.0729   25.0774   O
   26.8646   13.8177    6.8627   N
  -31.3722  -16.5380  -22.1866   C
    7.9757  -49.8294  -13.9403   O
   26.9742  -36.8401  -18.8987   S
  -42.3195  -45.6335    4.5993   S
   36.9433   33.1954  -47.5125   H
  -32.4407  -37.1933    5.2696   N
   -5.2809  -28.4729  -24.8607   S
   -5.1051  -49.9026   -9.2695   N
  -46.2128  -27.6630   -7.3345   N
   49.5255    5.6528    2.5778   H
   24.9520   33.8117    9.4311   H
   16.2152  -13.6905   17.0561   C
   -2.2275   25.8922   41.7953   S
   40.2344   30.8682   10.7812   S
   21.2578   32.1621  -12.7063   N
  -35.5408   46.7479  -25.3366   H
  -25.9300   23.1436  -22.7551   S
  -20.4351  -24.6492  -49.1243   C
  -30.4497  -44.6858  -48.8793   N
   26.3106   13.6371   15.5127   C
   23.6136   48.6774   36.6826   N
  -32.4305  -35.0013  -30.9794   C
  -17.6083   44.6602   -4.1119   C
  -17.9587    6.4738  -41.8992   S
  -31.1635   38.4187  -21.2120   C
  -14.8571  -24.0130  -13.9077   S
   26.0246   35.5032  -34.8621   N
   11.3304   -6.2662  -24.4156   O
   24.7333   16.9021   34.4877   H
   -7.0413  -22.5681   11.7597   H
    0.9974    1.6909    9.7876   C
   43.3958  -26.0666  -39.4081   H
   45.1018   -3.9684   22.6810   C
   23.2204   17.4921  -22.4047   O
    9.8870   33.2645   -1.2788   O
   -0.0437   42.9329   16.7160   S
   44.1956  -22.0404  -12.7675   O
    5.7975    5.1418   23.3604   O
  -18.6101  -22.9501  -19.1403   O
  -12.0775   48.6255   -6.9335   C
   -7.6413  -26.9202   49.9560   C
   -1.9942  -37.0144    3.3127   H
  -26.9317   -3.7895  -34.5699   H
   18.0899   20.5449  -31.0930   O
  -10.6370  -48.0076   44.1876   S
   17.2692   36.9351   -7.4551   S
   20.6095   32.9942   45.8011   C
   48.6887   -9.2143   -1.5074   S
  -25.2289   36.8338   16.7038   C
    1.1529    5.2545  -17.9387   H
  -26.4285   -9.3947   33.9263   O
  -31.5615  -21.1482   41.9843   N
  -17.2174  -16.3836  -27.4503   C
   -8.4834  -39.4064   24.1635   S
  -42.8532   24.3297   26.3019   H
   14.5646  -33.3686   26.2876   S
   13.6221   30.5730  -48.8048   S
  -43.6661   19.2065   30.8461   S
  -30.5615   -7.2093   45.4607   S
   29.4565   31.8481   36.5077   H
    0.6370  -28.1270  -27.5390   O
   -5.2405   19.3852  -14.7539   C
  -30.5918  -16.9547   28.6700   C
  -25.3205    2.5383  -34.7577   O
   -2.2908   20.5020   -8.4332   S
  -22.1616   34.6005   14.4698   O
  -41.9245   34.0845  -10.3189   O
M  END
$$$$
