Generated Ligand
Programmatically generated
Comment line
100  0  0  0  0  0            999 V2000
   49.6843  -44.8077   27.6333   S
  -32.8776  -36.3471   21.8507   O
   45.4427  -24.0615   40.8854   N
  -23.9260  -31.2748   -7.0824   H
   45.6238   46.9713   45.2705   O
   21.7271  -48.9617   31.4443   O
  -30.0818   -2.1790   25.3789   S
  -22.1824   39.9578  -29.4349   O
   -8.4186  -44.9680  -19.0824   H
   30.5459  -20.5683   14.2466   S
   47.4571   19.8871   45.8504   H
  -41.3441  -18.8541   40.8323   C
  -11.6263   23.8719   42.3865   S
  -40.2854  -24.0512  -48.6899   N
   -5.2054    7.6161  -46.0659   N
   43.0827    4.4261   15.5556   C
   36.0567  -21.9791   -6.5006   C
  -39.4003  -22.8115   -6.5031   C
  -34.9418   22.8455   29.6852   N
  -28.4612   -6.6021   -8.7260   N
   -6.6002   11.9691  -32.2031   H
  -25.4377  -26.1865   24.0446   O
   36.2167   13.9540   21.2056   C
   12.9212    6.0620   15.5015   O
    3.0919   18.3410    4.0286   N
   31.0342  -39.0758   32.9888   H
   37.9662  -34.7853  -29.2774   N
  -41.4793   25.1654    8.6400   S
   39.9397  -23.4912  -10.9167   C
  -42.2117  -45.2384  -41.2922   H
  -23.6214   17.8949  -10.0448   O
   25.4707  -42.6731   23.6659   S
   48.1268   44.9780  -23.8531   O
   46.4590  -39.3837  -35.3092   S
  -19.6708    5.1113  -35.3041   C
   -4.8866   -1.0784  -21.4373   H
   38.6454  -21.2972  -16.6989   S
  -14.4509  -17.1910    0.5919   H
   31.9513   44.3090   41.5200   N
   20.4313   33.9794  -14.0846   O
  -41.5181  -14.1569  -12.7102   H
  -28.6006   19.5319  -26.2124   N
   16.5712   41.4356  -43.7687   C
   43.6522   24.3505   24.9142   C
   25.0885  -16.3828  -13.2750   H
  -46.1920   13.8644   46.5715   C
  -39.8962  -14.6695  -33.4901   S
   38.5936    8.8596    0.5308   C
   15.3735   19.1758    7.4733   C
   43.9807   18.4489  -41.9787   O
   -4.6705    7.1599   35.2925   C
  -43.1374   29.2016   25.1154   S
   27.8749   36.3682   48.4070   C
   47.7962  -28.8719   19.3227   S
   -0.8879   44.2742    2.3098   O
  -35.6324  -22.7923   33.8496   O
   16.5558  -43.1934    8.8792   O
   -0.1634  -25.5356   24.3203   S
  -29.7378  -18.2197  -43.9769   O
   26.1660   -6.9020   31.1049   H
   49.8212   45.5093   42.4431   N
   22.6947  -30.1985   37.7976   H
  -22.0290   12.5205   23.1578   N
   25.5576  -46.9918   12.8297   S
  -22.4048  -41.8546   39.4758   C
  -47.7226  -15.5988  -14.0175   O
  -41.0543  -25.0640  -13.6324   C
   31.9430  -38.8030   -1.7021   S
  -19.1992  -11.7799   -8.1323   N
   46.0696  -49.5196  -27.3903   H
   30.9984  -47.3763   -2.4520   S
  -42.3226  -27.9783   41.3555   H
  -12.1948    5.8669    6.6641   N
  -40.2258   11.1713    1.6699   C
  -40.2789   27.9202   -8.8353   N
  -49.3500  -15.6841    0.0841   O
   27.8461   -3.9479  -41.4723   O
   12.5388   42.7795  -30.0867   S
   -0.8263    8.8529  -34.2397   H
   40.5230   49.8250    5.3883   N
   32.5484  -47.6730   11.6441   S
  -17.3786   32.9765   14.0003   H
   21.7575  -19.9278    3.3091   N
   37.2207   16.6148  -24.0053   C
   15.1611   44.0692  -33.8273   C
  -23.5805  -44.4612  -27.5757   C
  -24.3577   16.0086  -26.8449   S
  -10.5943  -29.5017   14.4421   N
   32.7090   16.3383    8.2291   N
  -28.4835  -28.7816   49.3823   O
  -35.5322   12.1981  -22.3796   N
   20.3865   29.5268  -48.1528   N
   -4.4745   37.8570    9.3242   C
   26.0165   36.1982   35.0522   C
   29.6647   -5.3213   44.0801   O
  -22.6697    3.9023    4.4610   S
  -15.8948   46.0236  -33.8317   S
   43.0288  -22.8799  -16.0549   H
  -12.1238  -30.0893   45.7812   H
  -19.9042  -10.0492  -10.5696   H
M  END
$$$$
