Generated Ligand
Programmatically generated
Comment line
100  0  0  0  0  0            999 V2000
   25.2005   26.3242    4.8593   C
   39.4222   33.5553   24.1774   N
   45.6801  -28.5721   13.6124   H
  -45.9562    2.8108   26.6210   H
  -27.4537  -36.5019   27.8633   C
  -34.1529  -10.8394  -44.4616   O
   -2.3169   24.4198   -4.6644   C
  -42.8310  -46.4076  -24.2534   O
  -32.3140   30.8878  -18.9521   H
  -28.7220   31.5721  -31.7322   C
  -40.7320   26.0199   18.2380   C
   -0.6603  -32.0132   20.3731   S
   48.2969   13.5224   -9.1299   C
  -26.1998  -21.3616    2.0400   C
  -47.7053   12.2480  -38.5320   H
  -41.9019  -37.9310  -34.2323   S
  -20.0576  -33.0235    1.8709   N
   -0.0218    1.8200  -29.6950   H
   -7.3090   27.7003  -30.2453   C
  -34.7702   40.7320  -10.2752   S
   -0.4830   10.0148  -26.0635   O
   -5.9849   44.2047   27.4922   O
  -41.0601   33.4406  -30.6103   S
    0.5833   42.5079   -2.7506   H
   36.7593    5.9451    2.2106   O
   48.3560   11.8569   -3.3067   H
   35.0267   26.1212   11.8239   H
   40.3777   41.2079   -8.6608   H
   39.0851    1.3538   37.1382   S
  -39.5632   18.5779    6.1492   O
    1.5996    6.9367  -26.0026   O
   -2.2384  -17.2313   37.6037   O
   25.5730   28.8452  -17.5430   H
  -35.4310  -35.7813  -25.4979   H
  -33.0767    4.0806   -9.6894   S
  -31.0300   49.5930  -23.7808   S
   -1.5526   42.1535   47.6770   O
  -47.9897    2.5437   33.3281   S
    1.7247   27.6417   11.5587   C
   25.8837  -37.2450   17.6326   S
  -23.4011  -46.3931  -44.6168   C
  -44.7764   26.0247  -40.8271   S
  -11.5049   -2.2572  -11.0535   C
   25.6407  -49.8479  -27.9692   C
  -17.7309   43.3005    0.2690   O
    7.7636   16.4106   47.9446   N
    3.4360  -24.8505  -15.9342   C
   25.2862  -20.1242  -15.5998   H
   49.5994  -40.3246   17.8941   N
  -11.1079   22.9804  -46.2940   C
  -32.3222   42.3594    8.8839   S
    1.4877  -22.0967  -18.8329   N
   12.7804   39.2323   -2.3829   H
  -42.7552   -8.5370   27.1833   H
   28.0557   44.7343   23.3522   H
    0.4591   32.3846  -21.4286   S
  -48.5546  -19.4412   42.7791   N
   34.8932   15.9018  -15.2487   C
   36.3902   21.8644   15.7377   C
    2.3549  -21.9301  -15.7255   S
  -44.7078  -31.9194  -28.9476   C
   44.4221   25.2155  -18.0516   C
   33.3060   35.4859   12.8852   S
  -10.4941  -14.3244   32.6637   O
   30.5082   44.8640   -4.3401   S
   32.8519    0.7814   -7.9408   S
  -42.0185  -42.3593  -26.3320   N
    3.6628   34.7764    3.5407   S
   -5.1643   32.7838   11.6402   O
   33.6106    8.3861  -10.8040   S
   22.2453   -3.3009   27.3564   O
  -12.6134   39.9156   12.4790   S
    1.7353  -35.1915  -33.1976   H
   24.3184  -22.3529  -25.1370   H
  -19.6433   41.9354   23.6301   S
  -42.1259  -42.7840   36.8833   C
  -46.3524  -42.6579   41.1101   C
   33.6474    4.0994   20.6521   O
  -48.1056   -0.1363   13.8544   S
  -36.0846  -25.4297  -19.4313   N
   24.4730   43.9334   19.0996   S
  -47.5769  -15.2852  -39.5609   O
  -35.9043  -33.8148  -19.5669   C
    5.1028   -5.2934  -40.5620   S
  -10.7192   26.6392  -37.2743   S
    8.3898  -28.7686   13.8822   H
  -34.1310   42.9420  -38.5946   C
  -35.1983  -32.0641   -5.5890   C
   22.6488    2.5788   30.4089   H
  -15.6325  -29.9097  -35.9231   H
  -45.8699   11.5998  -46.8189   H
  -27.6993    6.8154   36.0998   C
   12.1279  -43.7070  -49.2372   O
   43.4825  -39.7412   15.9715   O
  -20.4273  -20.5288  -32.3073   H
    3.5661   35.2659   25.8291   O
   21.0359   -5.1732   47.7525   H
   23.8950  -25.3801  -28.2696   O
   30.0290  -21.6904  -18.7800   N
    0.2678  -23.7941  -34.2454   O
M  END
$$$$
