Generated Ligand
Programmatically generated
Comment line
100  0  0  0  0  0            999 V2000
  -25.6755   17.7981   40.4765   O
   39.9726  -44.4581   45.5679   C
  -24.0841  -43.8537  -34.3635   H
   13.5755   16.0916   29.5016   S
    4.2552  -35.4104  -21.9234   H
   48.9245   48.4096  -28.6376   O
   32.3013  -29.4115  -12.8880   O
   -0.9397    8.2494    6.6598   N
   23.3199   17.2408   44.5707   O
  -11.1005   44.9075  -15.3242   S
   19.9299  -35.0128  -45.5418   S
  -25.7024   37.2400   13.1448   C
   -5.5002   16.6396   43.8808   N
   -4.3859  -39.0097   22.4262   N
   38.1916   15.0525  -16.0445   H
   33.0583    9.7661    9.6982   O
   34.3371  -22.0482   18.6097   C
   14.9410  -45.1032  -26.9160   N
    2.2033   49.8373  -41.1435   C
  -29.5946   43.2114   34.9282   N
   -1.8581   33.0358   49.6016   N
  -30.2645   26.4026   28.9925   N
   13.4722   35.5801   18.8069   N
   -8.3562   38.5274   36.7145   S
  -17.9490   24.5807   14.1803   N
   18.5374   -1.8102  -20.4903   C
   27.9032   31.5126   -8.5803   N
  -36.1576  -16.5673  -23.3850   S
  -49.5862   -2.7969  -46.7258   O
   -1.8693   -7.4417  -24.8572   N
   -9.3432  -35.6649   40.7732   S
  -23.4413    2.3207    3.6008   C
    0.1166  -44.9608   -5.9069   N
  -45.9587    6.5416   36.6595   O
   39.7515   -6.9622    3.6098   O
  -29.8006  -12.0833   12.1417   N
   -3.6531   10.9539   32.6004   S
  -12.1898    6.6463  -10.6712   S
   11.5401  -39.2615   -3.2271   O
  -14.6273   40.0616  -33.8452   N
    0.0674  -45.8858   34.7706   S
  -23.9362  -48.3371   19.5347   S
   -7.8587   42.2914   49.3447   S
  -42.8401  -16.0364   12.9295   C
  -29.3235   34.2303  -24.6852   H
  -47.1371  -45.0724   -4.1793   C
   30.9585   15.7885   38.8951   S
  -32.8951   21.0544   19.2763   S
   11.7873  -19.5098   -2.6188   C
    0.2718   22.1542   -4.5977   S
   24.4965   47.4915  -11.6226   O
   10.2705  -17.3202   25.9886   S
    0.0765   -0.1376  -40.2785   S
  -42.8723    3.8699    8.6485   S
   -6.2787   13.2489  -39.2726   O
    7.2347  -24.1374   20.7547   H
   11.4979  -30.0803   47.1176   H
  -35.5248   11.2104   14.2776   O
   32.7364  -42.2911   19.5773   S
   -9.1314  -18.8283  -36.8028   S
   35.6810    8.5143   15.6395   C
   15.8912   38.4753   40.1186   H
   39.2108  -29.9837  -18.9376   S
   -3.4777  -46.6315  -48.7383   S
   -9.3131   -4.5165   15.3255   N
    1.5909  -23.5968   37.7046   O
  -17.9447   13.7311  -35.0044   O
  -17.5782   40.4471   48.4127   N
   -1.7131   39.2621    7.2006   H
   29.7793  -29.2077   46.6594   H
  -40.4371   21.0938  -37.8758   O
   39.7754  -18.2318    1.6099   C
  -14.0566  -33.7974   16.6052   S
  -30.7724   13.5784   25.5603   N
   16.4952  -15.5178  -36.2789   H
  -33.4064   34.0277  -36.0906   S
  -33.6312  -24.2878  -23.0645   H
   13.4316   24.2648   29.9992   S
   17.0126  -15.2110   17.7270   S
   49.5211  -10.6273   23.0123   N
  -44.1728   16.6126  -17.4221   O
   30.8431   17.4136  -13.0690   S
   36.2281  -43.9065   28.7052   C
  -48.3916  -15.7624    5.8148   H
   40.6307    2.0438  -16.7956   O
   28.9466  -17.8776  -46.9698   H
  -20.7241  -21.3581  -48.9786   N
  -40.4461   -4.3181    1.7804   C
  -38.3952  -48.2395  -40.2825   S
   -3.7131   49.0751   43.6266   H
  -21.2211   24.8495  -14.3177   O
  -28.8255    6.5582   23.6941   O
  -24.0457   48.8729   38.4649   S
  -22.9942   -9.4567  -24.1770   N
  -12.1084   35.6568   24.1021   S
  -20.8324  -43.0896   31.6973   O
  -14.1508   25.6414   48.6607   S
  -45.7403   15.6823   -3.7463   N
  -43.2761  -27.9000  -13.9708   H
  -23.9569  -19.0791   10.0621   H
M  END
$$$$
