Generated Ligand
Programmatically generated
Comment line
100  0  0  0  0  0            999 V2000
  -20.5537   43.4924  -32.8934   N
  -49.6070   27.6803   -0.4999   N
   37.8072  -27.5234   -1.8591   H
  -20.6301  -26.6714    4.9545   S
  -41.2768   12.3542  -14.7470   N
  -31.3894  -23.8086    1.4636   S
   -2.4415   16.9585  -16.9675   S
    7.0937  -24.1802   23.2523   C
  -41.2303   32.4551  -13.8646   C
  -33.8334  -29.7297   16.9332   H
   47.9965   20.8760    7.0043   S
   28.1998   27.2670  -24.9625   O
  -12.0599   21.4653   20.4780   N
   48.2589   27.9057   -2.9839   S
  -31.6247  -20.1145   39.9206   N
   21.7893   37.8837  -32.4862   H
   -0.7725  -44.6636   34.8977   N
  -20.2660  -45.5975   33.4533   N
   16.0948  -17.3905   11.8994   S
  -13.4364   21.3948  -21.6029   H
   18.4177   17.5840   10.3624   S
   25.7891  -24.5544  -12.1014   C
   14.8732  -33.1047    1.8154   S
  -10.3346   36.4291   18.3523   S
   23.5761   -7.8280  -28.5581   O
   -7.6336   33.9295   -5.2903   N
   16.3387  -49.1218   46.1195   S
  -15.2291   22.9125  -37.6897   H
    4.2352   40.1306   16.5241   H
  -32.3308  -27.3582  -32.4772   S
   -8.4960  -28.2152  -14.9265   C
  -40.1881  -37.8322  -16.8749   O
  -45.3660   -6.7868   28.8573   N
  -35.5266  -37.3741  -22.9496   S
  -20.1666   13.3704   44.6622   C
  -35.2092  -44.0038  -11.6328   S
   15.4375   30.1952   10.2819   C
  -32.5785   11.8796  -31.2269   H
   29.4124  -45.7819   46.9068   O
   -8.6087  -29.6755   47.5112   C
  -15.3952  -12.9138  -39.0106   N
   30.5637  -39.2018  -17.2391   H
  -40.7610   -2.1841  -19.8928   S
   -3.6109  -42.1152  -26.8523   S
   -3.9027  -40.1286   38.9203   O
   -0.7880   -1.7105  -14.6477   N
   45.7887  -40.3184   15.5319   S
   41.2804  -27.9162   48.1820   C
   14.1455   41.7141   14.1434   S
  -37.8995   18.7570  -13.4065   S
  -15.9490  -18.6181   34.8240   C
    8.9212  -45.8387   32.4736   S
   22.4024  -33.1766   10.4982   H
   49.8428  -27.4538  -31.1649   H
  -13.7625   -9.4000   21.5490   C
   49.4985   24.4066   -1.6983   H
  -45.3239  -20.2454   -8.2804   H
   18.0466    1.7141  -27.0552   O
  -18.6097  -38.5459   13.3376   O
  -20.5318  -23.7181  -25.5816   N
  -26.2354  -42.2389  -34.6444   N
  -14.8434  -16.4873   32.2776   H
    4.6738  -29.7275   13.1414   S
  -14.5600  -15.0440  -49.6287   O
   17.2854   31.7730   -1.7184   H
  -43.0656  -26.0031  -47.5090   S
  -28.6946   29.2032   40.4515   S
  -44.3631  -15.7469  -48.6695   S
  -26.3187   15.1207   -4.2697   H
    6.0176   -6.6989  -29.4306   C
  -16.3784  -21.1404   -4.7309   C
  -23.4708   -3.9186    0.6309   O
   19.9448    8.6786   35.8208   O
   39.2103   45.9986   34.1770   O
  -19.1970  -38.4649  -30.5538   N
   32.2502  -32.2983  -24.5693   H
   23.4452  -32.2406  -22.8294   N
   14.4492    5.5329   30.2752   O
    2.2807   31.6219   21.8911   O
  -33.9442  -45.7098   27.4774   O
   -9.8748  -11.5922   18.1378   S
   26.1842   -6.7852  -23.7199   O
   42.7650   11.4994   13.2823   C
    3.6994   -5.5749  -21.4108   O
    8.5213   45.3744   22.5589   H
    9.3303   26.2433   -1.7186   C
  -48.4048   49.7907   24.7883   H
  -18.6094  -25.6924  -18.5416   N
  -44.9188   16.5716  -41.0496   H
   15.8196  -30.9036   21.0962   O
    9.7233   26.1323   15.0004   S
  -14.9018   41.1707   38.3368   O
  -29.9336   36.5082   -9.3854   O
   27.0970  -36.1355    6.8668   H
   -4.9808   17.0398   40.6823   S
   46.8922    4.5852  -26.2207   O
   -9.5736  -10.2778   25.7586   O
  -21.6396  -36.6910    8.8326   O
   47.9776   15.1879  -44.9407   N
  -31.9738   -1.6164    5.8420   S
M  END
$$$$
