Generated Ligand
Programmatically generated
Comment line
100  0  0  0  0  0            999 V2000
   38.1319   28.2597   -9.1984   O
    1.1664  -39.7796   40.5793   O
  -18.7346   21.3161   39.1745   S
  -23.3594  -17.6805   31.1224   C
   25.1681  -15.6910   39.2947   C
  -33.2787  -41.9605   24.3955   O
  -33.0254    1.3455   -7.7173   S
   46.8021  -45.1040   39.4054   S
  -37.2861   13.7001   44.1757   O
   29.4929  -13.0117  -16.8289   N
   -7.5958   48.1785    3.5016   C
   40.9535   20.4950  -37.9055   S
   14.8804   11.0663  -22.7722   O
   28.3029  -10.5899  -16.6404   O
   18.7333   38.8166   42.6294   S
   22.5294  -11.9420  -38.3532   S
  -11.3241   -1.1733   39.8870   H
   -9.9556  -38.0684   11.4788   O
   48.2693   -6.8098  -27.7760   C
   18.9838  -41.0355  -11.8838   S
   -2.6000   46.4418  -47.4958   N
   48.9148   46.7830  -14.5804   C
   41.2888  -44.0328  -34.5911   O
   20.8779  -30.3389  -10.6299   O
    6.9284    7.6146   15.5688   O
   12.9015  -18.6159  -13.3377   C
    4.9350   46.5252  -33.0130   N
  -13.7179   34.7425   48.5297   O
   37.0050    9.0825   39.9214   O
  -40.3812  -22.2980   29.2487   C
   39.6730  -18.9086   43.4173   N
   -7.5832    7.3195  -19.9461   N
  -34.7810  -27.1810   30.9804   N
   26.8248  -26.6372   35.3919   C
  -32.0270  -20.1142   19.7649   O
  -43.1848  -34.9609   27.4299   S
   32.2819   -7.1398   23.3294   H
   -6.5000    7.0015   30.5747   N
   47.4737    6.9140  -35.7644   C
  -18.0001   17.8237  -25.1423   H
    0.8339  -25.4685   49.5655   O
  -14.1660   29.0022   27.8788   O
   -7.0170    8.4211  -23.1811   S
   31.7772   31.6095  -42.2305   H
   20.1244   -4.5692  -10.9108   O
   20.1380  -19.4190  -45.1760   C
   19.2944   -5.9486    0.6801   O
    0.4570   -2.7196   16.4295   C
   33.6098   24.2317    7.7182   N
  -40.9902    0.3113   27.9735   H
  -28.5155  -22.0499   -5.4658   S
  -43.0646  -16.6937   43.4875   S
   12.7678   46.2417  -35.3367   N
   36.3883   20.1436    4.1618   N
  -11.5866  -41.3132  -38.7083   S
   -0.2062   -6.6286   -2.5827   N
  -36.1785  -32.3099  -10.6280   O
   -5.4166  -11.0138  -21.3759   H
   -9.3542  -37.9869   34.3642   H
   -1.5809  -33.2280    2.7085   H
   37.8763  -16.8591   -9.1655   N
   32.5938  -18.6672   -5.1223   S
  -22.4927   22.3524   40.5619   S
   47.9990   10.3534   45.0237   C
  -47.2704   10.4983   16.6085   O
    9.2607  -15.2190    8.4642   O
   15.9192   45.8217  -24.0278   H
  -24.0211   25.4852  -42.5322   C
  -17.0860    1.3429   -4.3067   O
  -39.4888   28.7742   -6.0513   C
   40.4578   23.9970  -45.5092   S
   15.9327   32.6685   42.7080   O
  -36.6489   20.4807   -6.0761   C
   45.4340   20.9111   37.2413   C
   11.9541   -6.2867   38.3662   H
   32.1417  -13.7291   -9.4623   S
   27.0218  -47.2148    6.4409   S
    2.8759   -2.5452   40.6230   O
   35.8892  -33.3939    9.4278   N
  -45.6572    4.2488   13.3429   S
   42.4158   31.8582   28.8702   O
  -49.8062   37.0240   30.2134   N
   45.2574    7.6306   12.9290   H
   41.6198  -15.6655  -20.2943   S
   18.7944   32.3846  -39.9380   C
  -34.9762   44.5507   -7.6470   H
   43.9116   32.4292    4.1811   N
  -32.2913  -12.0766   39.9624   S
  -40.5717   10.3869   12.8068   C
   -4.0489   37.9440  -47.1138   S
  -17.4200   -1.9770   -6.3933   C
   -1.9300    5.2702   36.5863   O
  -11.1482   12.3880  -26.3290   C
    2.6316   41.6149   38.0740   O
   23.2025  -14.7753  -45.6025   O
  -15.7511   24.2819  -47.3170   C
    8.6032   -7.5256  -15.3368   H
  -39.0225   27.0034  -25.8132   C
  -37.2976    8.4989   45.3237   O
  -46.7219  -48.8023   11.8277   H
M  END
$$$$
