Generated Ligand
Programmatically generated
Comment line
100  0  0  0  0  0            999 V2000
  -18.3686   49.8137   -6.0278   N
  -40.3387   16.3952  -34.0800   S
  -22.2367   42.3645    8.1704   S
    0.0069   38.5555  -19.2168   O
    2.0931   12.9408    4.3580   H
    6.5053    4.2004    5.6407   H
  -39.1101   45.2704  -34.5445   S
   30.6972  -15.0843  -20.3088   N
   -9.9753  -30.2210   41.2806   H
    2.9405  -38.3050   -2.6623   H
   30.6681   18.5419   -3.9259   N
  -34.5318  -17.6403    6.5248   O
  -26.2206   37.3612   26.8965   S
    3.6918   -9.2900  -34.2394   H
   41.4462   -3.2053  -13.8170   N
    0.8481  -20.2525   26.6318   C
   11.5272   24.8099   -9.2583   O
  -14.2984   37.7783   23.6609   C
  -44.7012  -33.4071  -36.6451   N
   25.0466  -39.5674   -1.8950   N
  -10.0930  -11.1063    8.6030   O
  -36.2495   37.2132   39.4912   H
  -48.1699   17.0420   26.5028   O
    6.0447  -17.3558  -26.5071   H
   23.3314   24.2059  -45.6900   H
  -17.3593   32.4151   23.4250   O
    8.3433  -37.4213   26.3565   O
  -18.6971  -17.4769   28.3532   O
  -26.8737   -9.6840   -4.1118   O
   28.3997   48.8955   33.2645   O
    5.0932   25.8650   33.4750   N
    5.6080  -22.8718   10.4263   S
   28.2792  -17.3611  -42.5812   O
   -1.4457   29.1442  -33.6515   N
   40.3492  -29.6314  -48.6667   H
  -35.8965   19.0109   24.1802   N
  -29.2311   43.3661   33.0655   C
   38.4433  -18.8518    8.6479   O
   40.6119   15.7519  -32.2723   O
  -27.9107    0.8463   22.5522   S
  -34.3369   12.3886  -27.6393   N
   28.0152   18.1261  -27.4271   N
   20.1391  -28.6521   -3.8945   H
  -17.6856  -36.1071   32.9038   H
   47.3204   -8.0032   -4.1906   H
  -20.0650   37.3637  -49.5024   C
  -45.2528   28.1425   19.8811   H
  -17.0108   45.4026   18.5245   O
  -41.1380  -21.4376  -45.0179   H
   33.4401  -28.2834  -24.7401   C
    4.1471   30.9407   43.7334   O
   -6.0453   33.6020   31.1673   H
   19.3904  -47.6842   -4.2013   H
   16.2443   10.4798  -27.8163   C
   13.0547   32.8857  -10.7632   S
   18.1655    8.5130  -32.9114   O
  -14.5795   18.9643  -27.3512   O
   26.9109   42.1685  -12.6928   C
  -21.6478    8.6354  -30.6538   O
    3.9389   10.2473   30.9158   C
   -3.2591  -24.2590   47.3330   H
   43.3338  -42.5691   23.0457   S
  -24.7498   19.1520  -25.6210   N
   31.7723   43.3989   34.0064   C
  -11.1993   18.6950    6.4827   S
  -21.4570    5.7908  -35.1242   O
  -43.7643  -24.8518   -8.9820   O
   36.3267   11.5271  -20.4498   H
  -43.1409   -1.4146   32.6536   C
  -25.5826   -8.8673   17.8688   N
  -23.5114  -35.9276  -37.4360   C
   -1.4035  -10.2516   32.3159   C
  -33.7196   44.7841   30.1566   O
  -25.0957   42.9930   38.9027   C
  -27.2699   14.9126   35.5655   C
  -10.9159  -37.9875   48.0815   C
   -6.1959  -28.5219   -4.7645   C
  -20.3254   30.3940  -32.6059   C
  -33.1116   25.8317    0.1437   S
   -1.6997  -12.9159  -49.9407   S
   36.1750  -18.9650  -13.9078   H
  -35.3789  -15.1301    9.4942   N
   12.5333   25.6555  -11.3177   C
  -34.5516  -39.4325   -9.5432   H
   31.6783  -24.3643    7.0780   C
    7.9311   35.1930   34.3929   H
   39.8177   10.4713  -11.4923   H
    1.4340    0.8743  -43.3452   O
  -14.3778   32.2995   44.9229   N
   -7.8133  -14.7044    1.3600   O
  -32.4574    4.7465  -30.9631   H
   -4.4167   33.0594    5.4982   O
  -16.4255  -25.8549   47.1816   H
   10.4946  -34.0287   21.6250   N
  -11.4061   46.3769  -38.7882   S
   32.0376   23.3440   -8.5642   N
  -48.2538   31.2741    7.3998   S
   31.4515   23.8608   40.9191   N
   39.5929    9.0204  -26.2019   O
  -47.9741  -32.5094   18.2255   C
M  END
$$$$
