Generated Ligand
Programmatically generated
Comment line
100  0  0  0  0  0            999 V2000
   13.7365  -31.0152  -21.0112   C
   -3.6585   34.7910  -42.9149   O
   15.8941  -22.2293   35.3212   C
   36.1825  -39.4032   -0.8433   O
   24.2368   11.8192   17.9401   N
   -1.8528    1.6999  -32.3570   C
   -6.4533   48.2395   33.1481   H
    4.2049  -34.3200   26.9411   C
  -20.4559  -12.7932   45.2247   N
   15.4171    4.5811    2.6822   S
  -41.0792   -5.2758  -14.5405   O
  -20.8486   41.4281  -35.1287   S
   26.7901   34.1886   14.1401   H
   39.1430    7.1310   14.8428   C
  -22.7207   16.0736  -28.5251   H
   47.0112   18.5283   21.3021   S
  -15.4370   49.9124  -39.0027   N
   42.9959   -0.1871  -22.0352   C
   -5.9404  -30.1197   12.8109   H
   29.0289   -4.4810   -8.2447   H
  -29.5918   14.7747   42.5333   S
    1.9280  -13.7243   10.1650   O
  -19.4034  -37.5080  -48.5594   O
    5.2049  -19.9811   29.0437   N
    3.3399   10.7508   43.3863   O
    2.1439   15.0161   17.5462   S
   21.7388   23.1055  -14.0608   H
    6.2765   28.6711  -48.7068   H
  -28.3617   44.6710   -7.5727   S
   20.9694  -16.4717   20.6664   N
    3.7482   27.6412    0.4597   O
    9.4504   20.9184  -26.4020   N
   12.1524   38.3959  -15.4680   C
  -24.7612  -25.2351  -41.9440   H
    6.4227  -13.8210  -17.2295   O
    6.8528    2.4774    1.9892   O
  -27.8693   17.2559    2.7782   H
   -6.6571  -49.7639    5.8793   C
  -30.2184   -4.7191   38.3586   N
  -37.9834  -25.7729  -34.8276   N
    0.9250  -41.4463  -21.4486   N
   41.4948    4.9141  -49.0867   C
  -17.4438   -6.9032  -10.5922   S
  -46.2396   43.9702   28.5739   N
    8.3708   34.0104  -36.9984   C
   -4.7645   46.0080   -5.1672   N
    7.9093   49.8338  -32.3118   S
  -36.2857    8.9138   -7.4839   S
   23.5381   -0.6249   23.9653   N
  -19.1765   39.6975   24.0607   C
  -34.5865   34.3456  -22.9224   N
  -17.5889   20.5269   23.4731   H
    8.8417    3.6151   41.7873   S
  -21.0613  -39.9685   45.3863   O
   20.0493    6.4936  -31.9197   H
  -41.9024   22.2063   23.1217   S
   18.6758  -17.7028  -31.0217   S
   19.5759   25.6591    5.4052   S
   46.5511   38.9382  -23.0646   H
   -7.1192  -47.0757   27.6912   N
   18.3677   34.7991   15.9485   O
  -16.3157   -7.2735   16.4980   N
  -28.9643   12.4190   12.8483   N
    5.5507  -26.5251  -33.5949   O
   16.2177   32.7198    4.3054   O
   25.4301  -41.7498   11.9577   C
   46.3142   24.3633   24.0337   C
   34.0369   11.0505  -13.5434   H
    1.8829   36.7137   19.8700   N
   30.8978  -49.7811  -23.7575   H
   44.0890  -37.7896   47.7618   O
   -5.7724  -21.1228   40.8405   N
   21.7326   21.1076   -7.7252   N
   46.6320   16.6553   37.1313   N
  -17.7873   48.6244  -14.6048   H
  -19.6524    4.3976   22.8243   C
    1.1876  -21.9776  -20.5094   N
   44.8287  -46.3737  -22.0111   H
   30.2628    6.7488   11.2641   H
  -19.2566    6.4265   29.9551   C
  -40.2902   -2.8154  -25.3478   H
   -7.8771   -0.9044  -13.5441   H
  -12.9860  -25.4741  -20.7172   S
   14.1923   11.1861   44.7054   C
   -4.0221   45.5809   48.7931   S
   -0.9122   24.4423   15.1272   S
   41.0853   41.7186  -40.4668   O
   48.6131   -1.9869   39.8196   O
   37.4148   49.0902   17.9900   N
    2.7835   33.5245   25.7059   H
   38.5946   33.5449   22.7970   C
   38.0815   16.6324  -15.4301   S
   -9.9841  -43.8967   46.7599   N
  -16.5818   33.3961   -5.9938   C
  -17.8775    7.8672   39.4891   H
  -21.9907   40.7681  -13.8445   N
    1.7126    4.3109  -45.6372   H
  -23.9201   18.4883   27.3880   O
   18.7798  -47.4369  -47.9247   O
  -33.8912  -46.8814  -29.3888   C
M  END
$$$$
