Generated Ligand
Programmatically generated
Comment line
100  0  0  0  0  0            999 V2000
   12.6692    5.3646  -14.1313   H
   49.4460   11.9637   23.1756   H
   47.5961  -32.9763   28.8375   N
  -49.0569   -0.4756   -3.2097   S
  -41.3354  -28.3551   40.5390   N
  -13.6554   22.6236   16.6740   H
   48.2457  -20.0035  -42.5946   N
    1.6719   10.8141  -29.3665   C
  -37.6902    4.9784   31.9030   S
  -41.9340  -37.2343   -6.3361   N
   -6.0398   32.9918   13.9228   C
  -34.7090   -0.4961  -31.9319   N
  -19.2797   36.0079  -20.5437   H
   43.2899   37.3828   10.0242   O
  -22.4492  -25.7997   13.4637   S
  -23.2522   -6.0436   35.0003   N
   44.4665   44.4481   -6.2431   N
  -44.9168   -5.3997   17.6019   O
    6.5215  -34.1828    1.8048   S
  -22.3550   23.0363   13.8404   H
   35.6096  -34.9385  -17.5164   C
   -5.6308   46.9903  -41.6155   N
  -30.1783  -49.4132    6.7744   O
   12.6363  -31.5877   37.6166   N
   47.4082  -12.6329  -37.1123   O
  -23.3255  -34.9819  -44.5403   C
  -14.7866   13.5604  -19.4248   N
  -30.4474   43.6688  -40.9824   C
   45.8561  -15.8302   10.1871   H
   15.9471   14.1376  -44.1011   O
  -11.1030   45.5041  -30.3110   N
  -35.6082  -33.9085   21.7736   N
    9.5461  -32.8607   37.2676   O
   35.7498  -13.8064  -44.3434   N
  -39.5897   16.8377  -14.4033   N
   35.2180   30.0861   22.3205   N
   45.7896    9.6234  -18.2195   O
   28.6902   21.7349  -37.4369   S
    8.4211   41.0639   24.1769   H
   -3.9504   32.6286   14.4143   H
   -6.6542   34.0409   14.9217   O
  -32.2271   37.1996   23.4348   S
  -41.5077    3.4503   19.8700   N
  -20.7207  -41.5347  -12.1734   N
   32.2543   43.1884   -7.6562   O
    2.3623   -6.6412   17.7996   O
   11.5669  -37.3794  -25.0638   C
   11.8524   49.4379   -2.0572   C
   -2.6144  -48.1714    2.6985   C
   -0.6032  -40.4419  -21.1384   C
  -25.2862  -43.1039   48.9332   S
  -48.2891   34.8239   17.1442   H
  -17.1772   11.2141   23.3433   O
   45.3623   27.8429   32.0017   H
   32.9196   37.3811  -27.7699   N
  -49.8884  -22.4541   -5.8116   N
   21.5939   -1.9499   -9.1211   O
   15.6374  -30.2251  -36.0559   H
   25.4987  -21.2446   -7.2596   O
   27.0403   26.8818   22.0422   H
   11.4680    6.2074   27.9104   N
  -14.6449   -6.2867   11.4661   O
  -30.6049  -11.3717   36.3411   C
  -26.0780  -42.5370   34.5575   S
   37.2176   -0.7129   -4.2962   S
   34.9021  -35.0186   -0.6664   O
  -23.8690  -26.8768   46.9071   H
  -49.2033  -45.8081  -44.4781   S
  -24.3627   32.8119  -46.2720   O
   37.1623  -17.0921   28.9062   C
   40.0036  -48.2799   37.4372   N
   14.5783  -12.3066   49.4166   O
   38.3792   46.2754   33.8696   S
  -13.8715    2.2722   40.3846   S
   40.3718   -4.9569  -48.8738   N
  -17.2951  -23.4586   -4.3243   N
   28.2664   -3.7259  -47.1040   S
   15.8743   -1.6161   49.8125   N
    2.7309   39.7587  -46.2658   S
   45.8393  -48.0442   14.7851   S
  -16.3590  -17.4133   13.1476   H
   -9.4528   49.9334   48.5318   O
   27.6591   47.9135   21.2536   C
   44.4065   35.3377    6.6970   S
  -13.2002  -27.9869  -15.9495   C
   49.5670  -10.8217   45.2400   H
  -18.6859   15.7133  -27.2134   O
   23.2893  -26.2608   -9.1276   H
    7.8043   29.8157   33.3514   C
   34.4901    4.0288   -5.4009   C
   19.3475  -38.1244    6.2733   O
   27.2706  -31.5999  -39.0827   H
  -25.5325   -8.5817   38.6992   N
  -12.9096  -46.2120   32.0553   C
  -17.9067   18.0673  -21.9010   O
   10.4336   -3.2779  -35.4782   S
   45.5653  -47.1629   14.7563   N
   -2.1248  -40.0409  -24.2366   C
  -33.8892   37.6371   -1.0208   N
    7.6068  -12.8714   46.7486   N
M  END
$$$$
