Generated Ligand
Programmatically generated
Comment line
100  0  0  0  0  0            999 V2000
   36.6164   20.7164  -49.0066   O
  -14.5900   28.9864   -9.9157   C
    1.2358  -31.7389   24.9710   H
   -5.8429  -13.0061   41.6493   O
  -47.4860   13.9805   20.6174   N
   37.5708    7.9339   37.9657   H
    3.6049   14.0234    5.0121   O
    1.6097  -34.8085   -4.9271   O
   -0.4515    9.8741  -12.6133   N
   32.0556  -40.4203  -34.9347   S
    4.6679   -7.0632   -9.2690   N
  -20.6252   12.1054   23.2579   O
  -43.2162   28.6326  -11.2897   N
    4.4902    4.7128   37.5661   S
   29.1696  -13.2677    6.0149   C
   46.5172   -8.8189  -21.7339   N
   45.9102   19.2461   -8.9658   O
  -36.6742  -37.6504  -49.2161   C
   18.4076   -2.0193   18.2791   N
  -12.7323   -3.5697    5.7332   C
  -30.9691   38.5470    3.2811   C
   44.7493  -20.7336   33.5511   N
    9.8913    1.6371   22.3190   O
   41.7269   17.4196  -17.6022   O
  -41.7589   13.5761   -3.3089   N
   49.5154   -3.1021  -39.4991   N
    1.3964   38.7163   42.7338   S
  -42.0417  -19.2828  -37.9429   S
  -39.9131   20.7546    0.1880   N
   16.9105   -4.8524  -25.6402   O
    1.1780   19.9884   45.7780   C
   -2.3512   31.9949  -35.0189   C
  -19.4535   42.3646   33.9264   S
  -24.7320   48.5824  -13.9200   S
   22.6223  -26.9599  -12.5531   O
  -12.0439   20.4931   38.1261   O
  -14.2173   -3.2718   -8.0755   C
  -26.5008   39.3608  -14.9551   S
    4.8448   47.3071   37.0406   O
   -6.0488  -15.4084   25.7195   H
  -29.2398    8.0047  -35.6550   S
   -0.8649  -34.3916   24.2874   C
  -24.6045   -7.1377   10.4809   O
  -43.4063  -31.0987   16.6910   H
  -27.0573  -25.3863  -48.4239   H
  -19.8417  -48.2677  -44.9689   S
   23.1562   41.2382  -38.7581   C
    7.5582    8.2885   -4.7247   O
    3.2333   37.9606  -21.8982   S
   30.4232    2.0721    5.7445   H
  -29.5843   40.5306  -20.3221   H
    7.3707   -7.7869   -5.1526   H
   -0.1653  -35.9826  -20.4336   N
    4.1265  -16.1143   11.2022   O
   21.2326  -31.8743    4.5915   C
  -43.7523   -4.4963   -8.3330   N
   -9.7299   19.4002   -7.9944   N
    7.1047   22.9305   16.8181   S
   -7.1488   38.3396  -47.0163   H
  -48.4749   -4.5543   36.1433   O
    9.4144  -20.3583  -18.0524   H
   26.4323   23.2451  -45.1089   N
   36.3441  -44.7474  -45.8289   N
  -47.9739  -24.5968  -34.4796   C
  -31.1727   13.0734  -48.7838   O
  -30.7967  -26.5471  -43.7166   C
  -46.8417   -0.8816   15.5310   C
  -48.5654  -29.1412  -39.6347   C
   27.3733   20.9045   -0.7012   S
  -47.8684    7.1130   35.2853   H
   10.2549   10.7890   16.1091   H
   31.0199  -30.5347  -19.0942   O
   10.8117   -0.2535  -34.1325   S
  -45.1826   13.6947   10.6894   N
   44.9946   46.2730   45.7439   S
   14.2643  -27.6380    9.9418   C
   46.9960  -40.3152    4.2479   C
   15.3120  -36.4304   24.8363   C
   -6.1545  -43.3612   11.1363   N
   17.5562   35.1994   -9.1353   N
  -41.1195   14.1587  -23.0365   C
   39.2454  -29.1803   43.1873   H
  -19.1988  -22.7616   36.8763   C
    1.1162  -31.0294  -43.0052   S
   23.7883   35.5451  -38.4215   N
  -30.3017  -30.0638  -43.4809   S
   -2.8387    6.4678   17.8564   S
  -45.3311    6.3987   26.9507   C
  -18.4410   29.8995    2.2868   O
  -32.2964    0.5791  -49.7373   S
   42.2480  -24.1100  -48.7568   H
   45.3778   28.0467  -10.5118   O
   31.3420   -7.4203   43.9904   O
    9.2145  -19.6044  -20.6333   O
   27.2062  -27.7266   46.5469   S
   -8.8383  -21.7531   35.7586   C
   11.0720  -43.6874   23.4953   N
   19.8662  -10.6249   27.5173   S
   34.8599   42.4936  -25.1700   S
   22.4191   12.9598   19.3999   O
M  END
$$$$
