Generated Ligand
Programmatically generated
Comment line
100  0  0  0  0  0            999 V2000
  -27.6556   30.8146  -33.1202   O
  -17.1710  -29.0699    3.6399   O
   32.0049    3.6036   46.0102   S
   -2.2264   -9.5877  -40.6879   S
    3.5444    4.9779   18.1397   N
  -21.9907   30.3544   25.0674   C
   30.6769  -15.5670   29.1902   S
   27.3973  -44.5895  -10.6145   S
   43.8061    4.1483  -27.2153   S
   30.9323  -49.6516   34.0328   S
   21.4102  -10.1834   10.6210   C
  -16.2884  -21.2245  -18.3317   O
   -5.4911   36.8296  -28.7862   C
   26.3588   42.4667  -16.1789   O
  -15.1939   23.5637    9.0846   S
  -39.1881   19.1342   23.0053   N
  -17.9995   33.7648  -12.5557   C
   16.7271  -35.9083  -41.5534   H
  -40.6303   26.9020  -37.1305   O
   -8.0740  -45.6624   18.5755   N
   49.7816   19.2947   -0.5325   H
   40.2507   28.0393  -19.4000   S
   39.7176   46.2029   17.1777   H
  -33.9059  -17.5649  -21.1465   O
  -34.0663    3.3557  -23.6788   N
   15.7193  -43.5712   15.2627   N
    8.7913   37.4768  -36.0622   O
   22.7930    4.1902   32.6242   C
   18.2717   46.7852   -7.4899   C
  -26.9369   23.1489   -4.5385   O
    2.3283   47.2385   25.7993   H
  -35.3568  -21.5040  -38.0527   N
   11.4401  -14.0813    8.8549   O
  -49.6930   38.8195   20.3526   N
  -18.2983    6.6587    2.5808   O
   23.3491  -36.1446   45.1257   S
  -44.6391  -27.9588   46.5794   O
  -27.6587   29.9138   41.4097   S
  -30.4444   42.0424   29.4674   S
  -15.7700  -26.8729  -25.9009   S
   15.7404    2.4280   26.3550   O
  -20.8572   23.1260  -26.1364   H
  -27.4631  -30.8364   -8.3822   O
    8.8655  -13.8628   45.4979   O
  -11.9761   26.3830   25.3273   S
  -30.8277  -25.1011  -33.6981   C
  -43.9185   35.7293   32.7205   H
  -18.8687  -36.0932    7.2393   O
   19.6337   49.9041  -48.5706   H
   13.4286    9.1226  -43.8464   H
  -32.1959  -36.0154   30.1776   N
   14.0486   -1.3370    1.5787   N
   39.2079   -1.4372   -4.3713   C
   -7.1620  -39.1280   -7.6313   S
   42.6235   20.2874  -31.3701   S
  -49.1317   11.6283   14.1749   N
  -11.7419    8.6974   26.1338   H
   15.7691   10.4699   22.0040   C
  -34.3328    8.7550   21.7767   N
   17.5186  -39.6197    9.9871   N
   40.9485   -7.0042  -21.7190   O
  -27.3660   38.5366  -25.7045   N
   31.2551   19.5284   37.3384   C
  -24.7518  -19.0343   17.5167   O
   18.0231  -16.2781   -0.3928   H
   33.4662  -30.5824    7.2588   H
  -49.5470  -43.7185   17.4767   N
  -23.0135  -10.4532  -31.6290   O
  -35.5806  -41.8536  -21.9774   C
   46.5138    8.1878  -26.0638   O
   29.7410   49.0864   -7.1759   O
  -16.5435  -27.5534   21.1155   C
   39.0474  -26.0838   22.3129   H
  -21.9094  -37.7103   29.8553   C
   21.0396  -39.2361  -32.1828   S
  -34.0758  -13.7025  -41.9980   H
  -37.8177   46.3362   47.7703   C
   40.6968    7.5271  -21.8834   H
    7.5347   11.7308   25.4618   N
   26.3486   46.6589   -0.7955   O
  -23.7819   21.4912   28.8984   O
   28.2376  -10.1789   17.5994   H
   19.3195    3.6901  -24.7907   O
  -25.9739  -42.0018  -49.8602   C
  -27.4436   41.0458   10.1657   O
   42.0566  -22.6474  -48.3445   H
   -9.7100  -49.6706  -28.6984   H
  -17.3560  -12.4543   14.2104   O
   25.5372  -41.6508  -13.0373   S
  -18.8600  -26.8822    7.2213   H
    5.8661  -10.2141    7.2836   H
   20.0710  -37.4941   -0.1859   H
   -6.7181   38.4610   37.2386   H
    4.5335  -29.8430  -26.7307   O
  -35.6022   26.6058    4.1242   O
  -12.3912  -46.1075   33.4236   S
  -15.4948  -36.1385   30.0695   N
  -22.5135  -34.2731  -25.3694   S
  -33.8209  -17.2572   46.4738   N
  -34.2374   15.7326  -46.0104   S
M  END
$$$$
