Generated Ligand
Programmatically generated
Comment line
100  0  0  0  0  0            999 V2000
  -24.1156    4.6580  -32.5624   H
  -28.3560   34.7037  -29.3549   O
    8.0958    5.6999  -16.5991   O
  -49.3327   38.5963   -8.6173   S
   37.4828   32.0630   39.4136   N
    1.0386   32.4115   16.2599   O
   22.6400  -12.8635  -14.1672   N
  -36.4215   24.5411    7.6369   S
   30.9642   38.7343   40.1229   S
   -8.3402   12.8201   32.3842   N
    5.4427  -39.2779  -36.6030   S
   35.5099   15.7990   48.7086   C
    9.5644  -14.8108  -44.2794   O
  -22.8922  -18.0308  -34.6918   H
    4.2390  -30.0823  -11.2177   C
  -15.5343    8.8538   37.1944   C
  -19.3523  -17.1965  -40.8430   H
   38.5614    3.5094  -12.6754   N
   33.5651   49.0401   28.3585   N
   36.9631   -8.6994   29.0439   O
  -28.7327   26.5594   26.0973   C
   -3.1243  -36.5586  -22.0767   S
   30.7475   -7.3761  -19.7742   S
   -1.1082    3.3043   46.4112   H
   46.9659    3.3019  -39.6437   S
  -36.8550   -7.0087  -18.3047   O
  -35.7394  -30.7060  -25.0552   S
   35.7747  -16.5246   31.0997   S
   48.6018   -9.6018   39.9049   C
   22.1044   -7.4839   19.0262   H
  -24.3249   48.7726  -10.0514   C
  -29.8440  -41.4574   25.6487   O
   15.0519   -0.1238  -28.7858   S
   29.6041   37.7856  -16.0046   H
  -40.2885    0.1901   21.1064   N
   16.4019    9.7279    6.7668   H
  -46.6356  -11.8347  -46.2366   C
  -20.1248  -38.9373   45.3516   S
   23.2341   30.4765  -27.3492   N
   45.2835   48.8506    3.7204   S
   20.7849    3.2886  -22.0547   O
   12.7060  -35.1245  -11.3651   S
   12.2948   44.2938  -19.4550   N
   19.8802   -7.8458  -36.5018   S
   14.1110   29.0147  -25.4614   H
  -37.3001   32.0304   -4.1157   C
   38.8711  -12.4072  -45.9714   O
  -23.3638  -24.4123    7.8437   C
  -44.6135   30.5842  -24.2334   H
    0.8270   -4.5067   39.8060   C
  -19.0367   10.0203  -14.9348   O
  -46.7949  -15.3631  -49.2963   N
   23.0745  -32.0081   26.2193   N
   -9.5761  -17.9710  -15.2214   O
   38.6450   10.3513  -33.5051   O
  -24.0704   25.4111  -38.0328   C
  -19.9054   42.3141   43.2685   S
   -2.4290   40.0273   29.5502   C
   45.0647  -48.2767  -33.7790   S
  -31.5712    0.9122  -17.5646   S
    4.5343   21.8488   -5.8755   N
   35.2937   -9.7893  -15.1498   N
   -1.9389  -18.5269   25.1558   H
   40.8336  -19.1849  -26.7258   N
   11.2197   18.0967  -23.2424   S
  -47.7803   30.8991   41.1827   H
  -11.2638  -28.0385  -14.4120   O
  -19.2142  -49.5650    7.5820   N
   30.0610   -5.8846  -35.1342   O
   11.6323   16.4868   -7.7885   H
  -44.2715   -8.6838    2.6172   S
  -23.3094   46.1471  -44.2431   S
  -31.2334  -24.2489  -36.1645   S
   47.0188    7.0648   37.2666   N
   -4.3649   -8.2149   -9.7062   N
  -11.3452   33.8400  -32.4129   O
   48.3518   39.5031   49.2873   S
  -12.8612  -49.8185   20.7459   O
   24.9977   14.3613   39.0566   H
  -26.1302  -32.6720  -20.5891   H
   29.3305   43.6268   14.3890   H
    4.8532   17.7977   31.0656   O
  -26.1188   -0.0741    4.0290   C
  -15.5574  -10.0383   -4.8248   C
   44.9968  -44.3162  -24.7439   N
   17.8050    3.8631  -28.9353   S
  -47.9196  -41.4657   -9.0172   O
   -7.1977   27.8646  -10.0008   O
  -17.8211   44.4964  -19.8170   S
   27.1254  -40.9801   -7.7181   O
    2.1824  -21.6800    8.2925   N
   -7.3493    1.4382    4.8234   S
  -25.3137    0.8688    6.9458   N
   31.6743   30.8381   14.2464   N
   -7.6523  -20.3259  -49.1881   S
   39.3445   25.1581  -30.4836   O
    4.9594   44.8898   21.1524   S
  -30.9790  -32.9775  -36.1325   O
   39.4980   -7.1419  -42.5797   N
   20.7364    0.6545   47.1931   O
M  END
$$$$
