Generated Ligand
Programmatically generated
Comment line
100  0  0  0  0  0            999 V2000
   29.9341  -14.3769  -35.1936   S
   -0.3029    1.6248   49.0516   C
   -7.0752  -35.2898  -10.9266   H
  -33.2302  -11.8688   22.5601   O
  -29.5555   42.2900   -6.4718   S
  -44.7484  -24.4457   -3.7538   C
  -25.5474  -12.3256   24.9158   S
  -40.7039  -30.0522   -7.9339   O
    6.9888  -22.7923  -43.1857   C
    3.5891  -37.9737  -20.2805   C
    7.2411   17.7362   18.6344   O
   26.6538   46.6316  -25.9132   H
   47.8048    6.3005  -26.7464   O
   34.7529   24.9141  -18.7636   C
  -25.0861   19.2282  -30.2040   S
   41.8830   46.7736  -39.8082   C
  -44.1300   42.1717   49.8400   N
  -37.7674   36.7930   19.3856   N
  -39.5971  -41.6565  -25.3980   S
  -33.6256   34.0903   29.7133   N
  -14.2506   -1.9549    3.9475   O
   32.1441    6.0754    4.9506   O
  -44.2571  -39.6295  -29.1155   S
  -20.3797   -5.5302   37.1467   N
  -37.3616  -11.4258   40.6984   N
   46.6456   28.1249  -49.6822   C
   22.4317  -16.4175   11.2754   N
    1.8640   -3.0024   -7.0987   H
    1.1144   43.3221   18.4077   N
   13.6382   35.1684  -24.1790   N
   47.6904   29.3788  -49.3189   N
   -1.0792  -13.1552  -12.6090   O
  -26.7137    0.7461  -18.0806   H
   16.7078  -24.5214  -11.8310   N
    8.3460  -36.3952  -44.8679   O
   31.2318    7.5830    5.6031   S
   -8.8804   -9.9103   -9.7825   N
   -5.8823  -16.8348   -1.1956   H
   48.2702  -15.7937   35.1789   O
  -46.2123  -49.5526   -2.7122   C
   13.0911  -33.7548   40.5786   C
   -3.7261   -1.9402  -23.7161   S
   16.7879    8.5176   24.4275   O
  -34.6611   46.4251   47.8922   O
   36.9577   36.2012   44.1841   C
  -47.9549  -29.6381   -1.8075   C
  -15.0151   36.0732   42.2832   C
  -26.0952  -20.1642    7.1764   O
  -10.1830   30.0140   30.5959   S
  -23.3338  -19.3682    7.5586   O
    1.8659   30.1183  -27.2047   O
   39.2649   -4.5528    3.6301   H
  -26.9040   36.7253    6.2183   N
  -35.3165    1.7655   -9.8457   C
  -23.8390  -48.6412    0.0568   S
   42.9389   31.4426   26.4767   H
  -45.3070   25.2677   30.0058   H
  -32.3783   10.0553  -30.5687   C
  -18.6652   28.2346   47.8287   O
   38.0347   -4.3573  -45.9446   H
   21.2565  -21.3829   35.7085   O
  -21.8117  -15.9388  -30.2586   O
   29.8246   14.2913   39.7772   N
    6.5393   32.0865   38.9082   H
  -46.2319    1.7017   45.9028   H
   34.2556  -37.6713   27.4790   H
   -8.9244  -48.0917  -12.8498   O
  -24.0877   -2.5891   28.1867   H
  -31.6015   16.2966  -16.8573   S
  -15.6339  -40.2924    7.1422   S
  -26.0436   11.3600  -47.7459   N
  -13.6891  -28.5291   29.8870   N
  -33.2092   22.0821   34.1301   S
  -40.1191  -33.8884  -46.1217   N
  -20.3375   43.4579    6.2487   O
  -21.4969  -22.8758   40.1012   C
   -6.6779   28.4839  -22.9971   H
   38.3653  -23.0735  -41.2138   N
   16.9380  -36.0853   43.8458   C
   26.8673   30.8452   39.0335   S
  -13.2735   35.7402   21.3497   H
   34.8103  -15.4905  -10.2270   H
   16.5867   45.8289   38.9262   N
   40.2345  -43.0982  -14.3784   O
  -37.8588  -44.5791   -9.9907   O
    9.4507  -37.1846  -30.4073   H
  -17.9520  -16.1915   40.7694   O
   14.6675  -23.5275   -4.0895   S
   -2.3859  -21.5032   46.1006   N
    4.5479   31.7435   14.1160   H
   -0.4050   17.5469   -0.1305   H
    6.1316    1.7718   22.0236   H
   23.9695  -44.1223    4.2105   S
  -47.0543  -20.7491    9.7097   C
    5.9236  -31.6184   34.6888   S
  -19.4526  -33.6363  -27.0179   S
  -46.4491  -12.3816  -29.6580   N
    6.5734   43.6717   33.0973   N
  -44.8270  -41.6945   18.9549   S
    8.5167    1.7505  -24.4799   S
M  END
$$$$
