Generated Ligand
Programmatically generated
Comment line
100  0  0  0  0  0            999 V2000
  -49.2105  -22.6605   -0.0598   H
  -22.9687  -23.7313  -32.2039   O
  -13.6093  -17.2181  -49.2200   S
   35.5616   16.3659  -19.4216   N
  -40.9882    8.1544   32.2080   C
  -11.8636   42.7204   31.6719   N
   39.1576  -14.2995  -12.5329   S
  -30.2471  -48.5084   46.4899   C
  -45.8984   16.2327    0.5374   O
   -9.9858   19.8634  -37.1950   H
   11.8838    8.4781    3.6259   S
  -13.4802  -24.2141   44.4207   O
   -8.6223   26.9405  -32.1033   C
  -17.8608    1.9189   44.9858   N
   -9.6420  -14.0052   33.7422   S
  -37.4709  -26.3026   -7.3993   O
   33.0975    8.5106    2.5636   C
  -13.7842  -46.3535   27.5128   H
   19.7156  -32.1041   16.1995   C
   41.1794  -25.8247  -31.8276   N
   48.4685  -34.1866  -28.0707   S
    8.1259  -45.3536   16.8403   C
   24.6448   -9.0660  -19.5877   N
  -42.6037   29.2999   -6.1052   O
   31.0075  -13.5717   -9.1636   S
   -2.3818  -24.6240  -24.2658   H
  -29.7769    4.4847  -26.7632   N
  -48.9776   19.1908  -31.9005   O
   22.8940  -28.9780   -7.0104   O
   17.0211   43.3831   21.2839   N
   47.3406  -15.3141   32.4775   S
   10.2009  -42.0694   -9.9069   H
  -38.5093    4.7916   18.5627   N
  -35.9435  -35.0131  -38.5711   N
   49.3677   27.3283   36.3982   S
   28.5827  -43.2597   -0.4285   C
  -28.3150  -37.4636  -43.9403   N
    8.1484   11.0813   42.2652   O
   45.6761   36.0537  -49.9016   H
  -36.4924    5.9806  -26.1306   O
  -19.6578   33.2909  -33.3581   H
   40.9319   38.9055   18.7839   S
   45.0416   42.5458   28.6135   C
   10.6768   47.2305  -32.0999   O
  -17.8308   46.2658   15.8436   S
  -27.6162   -7.5947  -24.2790   H
   29.2358  -23.9680   27.2566   O
  -37.6442  -44.1318   27.2340   O
  -12.1873   32.9929   26.5289   S
  -28.1387  -47.0118  -14.5375   N
  -39.9803   47.3195   19.1592   O
   19.9305  -42.7886  -18.5374   N
  -40.3149  -12.3622  -46.3508   O
  -27.9357   30.6197   -4.5900   O
   25.1275  -48.0343  -22.5719   S
    6.4221  -22.2020    3.7756   S
   37.2218   47.5050   -4.6466   S
  -26.7685   35.5947  -28.9040   O
    7.0389   11.2776   37.6980   O
   40.3099    8.3991   45.8883   O
   -2.9923  -41.5536   24.6221   C
   38.4732    0.3393   47.6118   C
  -20.3471   36.0807   12.6960   O
  -32.7803   43.4231   45.9173   O
   17.1532   41.0494  -22.2848   O
  -47.2957   20.6232  -15.1318   S
  -25.7540   39.3064  -33.6827   O
   39.6121   -0.0853  -30.6655   N
  -43.7930  -21.6630  -11.6832   H
  -49.7014  -26.0871  -15.5793   S
  -20.0652   12.6565   34.8345   H
  -39.2306  -20.5783  -17.6637   H
   21.0538   38.7536    8.3346   N
   -2.1669  -35.1347    3.4002   H
   25.2400   14.8106   32.3960   N
  -39.1905    8.6647  -27.6111   N
   39.4366  -16.0298   21.1525   S
   13.1944   44.9817   -4.9009   H
    5.9696   31.5386   -5.0861   O
  -26.3021  -49.8724  -32.8987   N
  -19.2900   21.5882   14.5977   C
   31.1411   -8.9095  -30.0164   C
   25.8627  -31.3774   26.2979   O
  -16.5705   37.0590  -41.5707   H
  -32.4746   31.4111    8.7622   C
   49.3983   -7.3822   22.7725   C
   -5.2527  -32.5737   26.7256   N
  -42.0572    3.9034   22.2056   N
   34.5357   -8.0240   40.3245   O
   14.3723  -26.8384   -8.1600   N
    2.5436  -15.1884   13.2572   C
   48.8575  -18.1863   22.9033   O
   14.7649   42.0337   -4.5077   C
   41.3828    7.8621   37.6868   H
   -0.1672    3.9575  -29.4891   C
  -20.9308   33.1658  -49.4811   O
   28.9310   19.2900  -18.0019   O
   22.0426   -7.9573   21.5537   O
   34.4997   30.9249   34.2288   C
   -5.9982  -33.1100  -12.7840   O
M  END
$$$$
