Generated Ligand
Programmatically generated
Comment line
100  0  0  0  0  0            999 V2000
   12.8858   -8.1408   48.5276   N
   -9.4980   -4.7249  -44.1724   H
   44.3424   43.5807   38.5461   H
  -26.8956  -30.0335   -6.7475   N
   44.7421   27.7953   37.0845   O
  -29.2552   -9.2989    5.1484   H
   12.4099  -32.1770    7.8005   S
   34.6248   41.1749  -44.8572   N
  -23.8780   13.9716  -17.4276   O
   10.3465  -36.1284   36.7946   C
   13.1406   39.3541  -29.8484   H
   -3.9767   33.6886   34.0431   N
  -25.6804   -8.4759  -29.7392   H
  -39.2980   37.0390  -43.2451   O
    6.8862   24.4069   21.1310   O
  -10.5556   23.0933   14.6359   O
   31.7858   15.0511   40.5258   H
   27.4329   -3.6891   24.6662   N
  -25.8907   13.6402   46.0388   S
  -12.1521   10.0821    1.6653   S
   -0.2621   38.8802   29.5010   N
   -7.9660   31.6258   42.6068   O
   15.2585    1.7371   36.0853   S
   -0.0717   36.2007   36.4708   H
  -45.4595  -22.6272    6.7026   S
   26.6450   29.6788  -26.0155   H
  -45.9432   -2.5906   17.3367   O
  -33.9753    0.2389  -26.3324   H
  -30.1701  -15.3571  -37.2798   O
    4.0754   -3.1335    3.0273   C
   38.0706    4.1755  -39.7652   S
  -16.7442  -37.4175   -0.2262   O
   15.4038  -39.8692   40.6694   O
   29.8550    5.1747  -36.9470   H
  -42.4254  -31.4065  -38.6899   N
   39.2924  -36.0760   39.0868   C
   20.7169   22.5810  -30.7392   C
   -4.8031   23.2982   18.6656   H
  -47.1610  -23.6242  -42.1321   N
  -13.0151  -39.4166   -2.4257   C
   10.1462  -44.8465  -46.9794   C
  -31.0961   43.0222  -26.5541   N
   37.7430  -11.2135  -38.6285   O
    0.4067   10.5347  -14.8424   N
   47.6051  -32.3819  -25.6179   N
    2.8912   12.9657   34.2177   C
   10.7576   -4.2028   31.6948   N
   -8.4234  -29.0236  -41.5459   H
  -26.6724   14.6720   26.5588   S
   44.4356   23.4758    7.3996   N
   45.5882   17.0257  -41.6939   S
   35.3220  -31.1532   -5.0715   S
    5.2626   18.1233   35.8800   O
  -21.4518  -17.8653  -16.3785   O
   16.0983    0.7801  -35.0085   O
   47.2530    1.7135  -38.3567   O
  -22.9245  -28.6172   30.5692   C
  -20.2606  -47.4824  -17.2699   C
  -14.1377   10.3240  -39.1564   H
  -39.4618   22.6729  -22.4418   C
  -40.9504  -43.2826  -12.1077   O
   -9.8463  -48.0471   14.5807   N
  -47.8716   13.7089  -22.9034   S
   37.1998  -25.4317  -33.2160   N
  -44.9787   17.9394   45.1471   N
   34.5950   42.9490  -45.0115   H
   22.5664   13.1733   47.2252   C
   -6.3385  -36.4434  -13.1221   S
   14.7192    1.1412  -15.7575   S
   40.4018  -29.5192   47.5519   S
  -42.2421   16.1152   -1.7855   H
   23.7295   24.9212   43.5364   C
   -9.7226  -30.2047  -34.3187   H
  -27.7295   22.9783    9.0359   O
   -1.0421   -6.9450   41.3267   H
  -30.2511   -8.2634   49.0540   H
  -38.7779  -32.6012  -17.3664   H
   -1.6984   39.8377   18.9141   C
  -48.4731   45.8197   -2.5739   O
    6.9981    4.5367    7.7234   N
  -44.2265   18.5730  -26.7032   S
   26.7576  -33.5277   38.9698   N
  -18.6331    9.6390    9.4998   O
   22.3557   -3.1405  -27.0610   S
  -10.5378   21.1182   49.7597   C
    8.9442   32.2955  -45.5111   S
   36.2185   -4.4148   -3.9935   S
  -10.4248  -19.1836   24.1204   S
  -47.1589  -18.1155  -45.6144   H
   27.3099   -2.8079   12.9153   H
   34.9247  -25.2483   -8.9326   C
  -48.9892  -34.4146  -20.2208   N
    6.0849  -46.0530   10.2511   O
   33.2707  -36.8640  -11.5821   O
    2.6687  -40.1439  -32.9950   S
   -5.9938   48.1181   -7.5262   O
   37.9402    7.3011  -36.4197   C
  -25.2728   24.8691   14.6897   O
   28.4831  -38.1129  -26.8962   N
   17.2684  -31.5950   38.8832   S
M  END
$$$$
