Generated Ligand
Programmatically generated
Comment line
100  0  0  0  0  0            999 V2000
   10.9209  -12.1686   15.5597   O
   22.0823   40.0210   -9.4683   N
   44.2653   42.3892   37.0486   O
    9.5466   38.8722   12.0102   S
   38.4249  -49.8237  -46.7209   O
   12.3441    4.8746   37.3476   O
   22.3344  -23.1973  -44.0245   O
  -47.6432   44.8643  -29.9151   O
   43.5188  -36.9309  -38.9789   O
   29.4709   -8.6978   37.3879   O
   13.2225  -19.2285  -14.1681   H
  -31.4547   28.4828  -19.9093   N
  -40.1995  -49.8809  -42.1585   O
   -0.9835  -15.3926  -22.7316   O
    6.3145   41.4055   47.2594   S
   29.1489   39.1438  -24.8211   O
  -39.2685   19.4750    2.9506   S
  -43.9011  -24.8603   21.4097   H
  -21.9467  -11.8568    5.2943   C
   -0.3494   38.9498  -32.9959   O
   -2.2628  -31.6868   29.3025   S
  -42.6666   12.4791  -14.6262   N
  -11.2751   42.9502   -9.9567   N
   10.5409    4.9935  -10.5006   S
   25.2226  -49.3173   -6.9420   C
  -41.5365  -18.8269   28.3313   O
   -2.6662   22.6296  -47.3140   C
   23.8793   33.5056  -41.0223   S
    8.8870    4.3237  -18.6055   N
   14.0072  -39.4836   42.2058   N
  -16.0235   15.9626   16.3374   N
  -25.8771    9.8536   15.0973   C
   19.4551   -1.6253  -28.8073   N
  -15.6952   31.1554  -10.3130   C
   13.6348   -4.0575   22.2894   C
   48.6113   48.9605   18.1944   O
  -37.4298   -6.3719  -26.1921   O
  -45.4884   36.8112  -39.0176   N
   30.1338   32.9287   -1.7844   N
  -47.1927  -28.2633  -21.0130   C
   35.7546    7.3045   23.8736   O
   -7.6110  -35.3013   22.5096   C
  -31.6165  -20.7612    4.2892   O
   46.4155   36.0379   35.3573   N
   45.9807  -23.0074   34.3892   H
   -9.4826  -47.9519  -30.0347   O
   37.1166   46.1383  -12.9956   H
  -28.6847   46.5383  -38.3879   S
    7.5951   21.1859  -14.0338   H
   25.8757  -20.7401   11.1852   S
   39.5310   38.2081   45.8906   C
   -2.7932   44.0618   31.8920   C
  -23.1413   47.8853   17.5988   S
   46.5710   13.8296   -7.0797   C
   33.9531   46.2671   -0.9434   C
  -11.8404  -24.6312   -9.1474   S
  -33.5646  -17.7302  -10.0254   S
   18.1812  -10.2465   47.7927   O
  -29.5931   38.5332   30.4429   N
   13.1718   25.3809    8.1131   H
   16.2840  -26.4305   44.0803   N
   35.3870   -2.5613   17.7466   S
   35.6825   23.9494   -0.9753   N
  -23.3432  -13.7879   12.3207   C
   -1.6848    5.4824  -39.4820   C
    3.2905   24.6378   39.7043   N
   27.3185    2.4425  -12.9637   O
   25.8569  -34.0266   44.2606   H
    8.7945   -6.6148  -41.5110   N
  -23.0125   34.1861   20.5665   C
   19.0803    9.1121   -8.8141   C
   35.5839   -3.7831   37.0543   S
   43.1169  -25.0093   -9.0889   N
   13.7456   -7.8435   11.7021   H
  -15.0527   44.1582    6.4650   O
   15.7959   41.0357  -30.6177   N
   30.0230   26.6225   -7.6361   C
   25.2800  -49.8451  -21.3097   O
   42.4673   -6.1533   -3.0088   N
    5.7241  -37.0949   -5.0430   H
  -47.5909  -39.7018   31.5914   H
   -9.0613  -31.4958   21.5667   N
  -36.8828   40.2211  -14.1343   C
  -16.7335   11.0334   45.7335   C
   14.9649    1.8357  -23.0738   C
   48.3080   -2.0369    7.5975   N
  -16.5651  -15.2343   33.1726   C
    8.6833   16.2827  -35.9175   H
  -25.4146  -47.5656   -0.7695   O
  -49.4207   23.5449  -30.1610   C
    9.5055   33.4572    2.5818   C
  -19.0374   15.5098  -31.5688   C
   -1.2651   42.0052  -42.7624   S
   23.5397   42.9584   30.4680   C
  -43.6825   12.3316  -42.6850   H
  -16.9011  -40.7888    7.8282   S
  -30.8613   26.7504  -49.5827   O
  -38.8797   -5.8065  -39.7757   N
   29.7960  -42.6009    7.8363   O
   26.5142  -48.7572   16.0654   N
M  END
$$$$
