Generated Ligand
Programmatically generated
Comment line
100  0  0  0  0  0            999 V2000
   -6.8235    2.4634  -23.0633   N
   15.1871   48.7014  -37.8800   S
   21.5285  -21.0488   -1.7273   S
   27.3685   13.2995  -16.7816   H
   46.4998    2.7446  -35.5098   C
   10.7208   31.2514   11.4235   H
    4.9678   15.5321    9.5205   H
   45.2309   10.7745  -37.8650   O
   23.1706  -28.2608    9.9171   S
   36.1921   21.4389  -47.0622   S
  -44.8893   35.7191  -19.3283   C
  -13.2143  -23.6459   -5.3460   C
  -14.9009  -45.6878  -37.1004   C
   46.9401   33.8696   20.2434   C
    6.9681    9.1578   22.2815   O
   11.5168   46.9266   29.7047   O
   34.1716   -4.5031  -22.7165   H
   37.5065   -8.2355  -12.2410   N
   45.5585    7.2837  -24.4256   N
  -23.7732   16.8549  -14.9334   N
  -20.0751  -44.5847  -31.8175   S
  -11.3805   29.1729   26.1311   C
  -14.5128  -25.8437   17.9909   S
   48.4682  -32.4895    6.7733   C
  -31.6305  -48.6879   -2.2481   C
    6.8147   16.7261   35.2978   C
   34.4846   -3.8782  -22.0078   O
   12.4431    2.6566   21.6637   S
   -9.4671   10.6238   -1.6993   S
  -21.4019  -12.0823   11.2748   O
   38.0092   23.8753   48.7358   S
  -12.6872  -32.5982  -11.8182   O
   40.2345   11.6155    8.9579   H
   48.7788   16.0483   42.5966   C
    3.5040  -45.0972   11.1997   S
   41.7562  -25.9838  -22.6275   S
   10.1433   44.7105   -9.1188   H
   30.0168  -10.6375  -35.8253   C
   29.7522   -4.2399  -17.9415   O
  -35.2676  -21.1714  -42.6061   H
   -3.0353  -10.9478   35.6848   C
   -9.7671  -34.3619  -44.6324   O
   25.4385  -20.7325   22.6704   C
   21.1362    8.2777    5.3844   S
   14.5331  -30.8521   30.5240   O
  -33.3007   12.1350  -45.1852   O
  -16.4949  -22.3957   31.9966   C
   -0.2355  -22.0688  -28.0812   N
   14.1743  -47.8499  -34.1378   N
   46.9019  -45.1617  -18.3474   C
  -38.3022   48.3425  -25.5974   N
    7.7947  -46.5716    0.2833   O
    7.5774   20.5934  -11.0704   H
   43.5602   -2.5255   -1.0065   H
   43.4003  -11.1343  -16.0788   O
    6.6680  -45.8504   21.2871   O
   21.8574  -21.6560    6.8804   C
  -11.3943   11.5243  -13.4635   O
  -40.4018  -43.2658  -24.8284   N
   17.5718   47.7908  -48.5734   O
  -40.8609  -49.0313   47.7157   C
   -0.8613   22.0107   -3.0351   C
    2.8802  -12.4520   43.4701   C
   33.8865   49.8470  -22.3316   N
  -29.5153    9.7904   25.9679   H
   -2.9149  -44.8319  -27.3491   N
  -34.2051   28.5584  -28.8589   C
   20.4691  -29.0730   49.3891   N
  -14.6933   -6.0657   25.2050   H
  -27.2528  -30.0557   -7.5508   O
   23.3433  -11.1262   37.2933   C
  -14.8384  -26.3316   18.5482   C
    6.3037  -21.7826    5.8632   N
   16.8433  -19.6449  -11.2545   S
   12.2454   47.2208   -9.5300   H
   -3.4131   18.6155  -22.7315   O
   34.1239   11.2386  -37.0045   H
   47.3210   29.6728  -15.8206   S
   -2.6961   29.2153   47.8899   C
   -8.4739   36.7226   -3.7634   S
    2.2495  -33.9295   -6.0860   S
   39.7306  -23.8083    2.0756   C
    5.4738  -37.9690   24.9822   C
   46.9815   45.5797   19.6678   S
  -42.3684    3.7249   12.0862   N
  -47.1694  -15.1615   18.7797   H
  -48.5254   37.6526   -7.9657   O
  -23.2970   32.9414  -30.1188   O
  -30.7392  -36.4023  -42.6004   C
   -8.1734   -3.5953  -32.2555   N
  -16.5705   28.8462   -2.1480   O
   -2.0504  -22.3831  -46.9112   N
    1.1779  -47.8754  -19.9672   S
  -18.7343  -35.5467  -46.8397   H
  -21.5676  -49.2602   45.0486   O
   41.5116  -43.2353   29.8277   C
    4.2180   15.0604   24.1396   S
   14.4190  -11.8541   46.8812   C
    1.6593  -37.8843    2.0812   S
   -9.0696  -33.4910    5.9347   O
M  END
$$$$
