Generated Ligand
Programmatically generated
Comment line
100  0  0  0  0  0            999 V2000
  -19.9454  -16.7175   27.0847   O
  -43.4985  -11.6602    6.1064   C
   38.2591   38.0522  -37.7283   C
   -9.5838  -20.1746  -19.9636   H
   38.8183  -31.5123   35.1532   C
   40.1100  -12.4639   34.3655   S
   32.6454  -21.3185    9.5898   S
  -43.3002   -1.9006  -49.5679   C
   21.4643   15.1954   11.6665   H
  -20.2030    7.2250   30.7354   H
  -27.0865   -8.3485   28.9382   H
  -10.5713   34.9064   -4.3028   O
   25.5573   12.9207   16.7522   O
   14.6984    4.0412   34.9604   S
   -4.2841  -10.1988  -25.8765   H
    3.0741   41.6396  -37.6968   O
    1.3147  -38.6997    9.6747   H
   13.2485   -4.0950  -42.2657   N
  -21.5798   48.2117   19.5664   H
   41.2423  -47.1071    6.8972   S
   33.4260  -16.2638   15.6729   N
  -19.4122   36.3883  -43.6817   O
   29.6683  -44.2765   37.1495   C
   22.8109   -8.3637   19.0201   O
  -39.5074    8.3982  -13.0917   S
  -49.3439    2.1255    7.0871   C
   10.9591    9.9556  -34.8422   H
    8.8718  -36.9952  -28.4232   N
   36.7669   28.7041  -35.3048   S
   41.5345   23.5516  -44.5146   N
  -35.1930  -30.1386    3.5309   S
    8.4751   -8.6948   41.1432   N
  -39.2327   25.8385  -16.5327   H
   36.1923   13.7270   12.1582   H
   -3.2206  -46.0699  -11.4577   C
   33.4855   30.5584   12.7059   H
   -2.6928    1.9505  -30.3828   H
   43.4446  -17.5248   35.3153   N
    0.4199   16.5220  -30.7006   C
   10.4119    2.0697   41.4756   C
    0.9276   35.8322   -4.1730   O
   49.3445  -31.4541  -16.8326   H
   -8.9573  -36.3696   45.9934   H
   -1.1150   12.3105  -23.3492   S
  -20.2535   -0.3398  -19.8641   N
  -17.3784  -43.7817   39.4892   S
    2.9664   31.7855  -34.2589   N
  -38.6944  -48.1824   47.9606   N
  -38.9557   41.2977  -45.5199   C
   38.6322   47.9924  -45.9062   C
   25.4928   49.4545   21.7774   O
   14.2052   18.7323   16.7027   N
   14.7539   26.4094  -29.7138   C
   20.9530  -19.7815   42.8236   C
  -30.5966   12.9908   41.2012   C
    0.7189  -29.0527  -14.6421   C
   24.2944   32.7048  -25.2348   S
  -29.2480   31.3389    3.6224   N
  -27.0673  -13.0307   36.5592   H
   -3.6160   10.7627  -16.6958   S
  -31.5367    0.3783  -37.7204   N
   40.0314   37.2798  -37.6852   N
   49.6620   27.7852  -18.8307   N
   33.3228   43.1474   25.3204   S
    9.0586   11.1269  -33.2896   H
   16.8204  -48.6123  -36.1235   C
    7.1972   49.6772   47.3218   N
   -3.8359   10.4717  -19.2328   S
  -23.4236   25.4272   12.4898   C
   37.2158  -39.6061  -20.3613   N
  -12.4714  -33.6167   26.6323   H
   15.4646  -21.8593   24.9742   O
    1.2843  -42.5145   -8.7513   S
   11.1153   44.1073   12.0474   N
  -10.6897   23.9289  -18.0662   O
   48.4794  -20.1253  -37.0998   H
   -2.2131   28.5532   -9.9932   O
   18.1777   20.4536   -0.5280   O
   13.0679   -4.0722   21.7274   N
  -13.2542  -26.2780   36.3576   C
   30.0405  -23.7556  -39.4306   O
  -49.4393   36.7863  -25.2191   N
  -10.4407    0.7433  -31.0111   S
   -8.5224   22.5126   19.0356   O
  -33.1269  -17.0985   19.5446   H
   -5.5212  -48.1763   16.9199   N
   35.6270  -13.8819   30.0675   N
  -17.9602   33.1055    2.2273   H
   10.4469    4.2549   36.9792   S
   30.8068   -6.9328    8.8037   C
  -19.1694    7.7733   43.4745   C
  -25.9456   41.6643  -19.5856   O
   29.5679  -45.5644   17.8671   O
   11.4677  -38.2760  -47.4158   S
  -36.4266  -10.0833  -34.9785   S
   -5.6255  -22.6390    2.0612   H
  -34.4643  -28.6262  -21.5346   N
   42.4728  -35.0534  -23.6665   H
   33.1010   27.7629  -47.3649   C
  -44.0121   44.9538    5.9368   S
M  END
$$$$
