Generated Ligand
Programmatically generated
Comment line
100  0  0  0  0  0            999 V2000
  -27.5310   13.4887  -41.1819   H
   29.4755  -42.9684  -41.7339   S
   42.9930  -29.4440  -15.0703   O
    6.4191    9.7161   -5.4032   C
   48.4128  -13.3037   30.7333   S
   42.2143  -34.5207  -38.8325   H
    0.8860    6.0661  -44.1591   H
   -7.2893   30.5353  -20.1577   O
  -37.2439   18.2950   31.9767   S
   28.8236   12.6587   48.4354   N
   17.0180  -39.2689   47.7031   H
   31.3216   16.3665    4.9498   H
    0.1756   41.4960  -36.1425   S
   26.8228   25.5324    9.9288   C
  -41.0013    1.7174   23.8656   N
   39.6685  -21.7030  -11.1148   C
  -10.3663   43.3717  -42.1216   N
  -11.0811  -12.6990   -3.1796   N
  -36.0594  -40.6899  -40.8671   C
   47.8202    3.4539   29.0324   C
  -23.8044   18.4470    4.0588   S
  -44.8978  -36.8776   36.5693   N
   14.7658   32.2052  -30.6840   H
    6.8782  -14.6145   17.2176   N
    3.0652   -3.0280   33.4550   H
  -23.9859    4.7575   18.3437   N
  -49.1494   12.2793   29.3767   O
   -3.0925   49.0208   15.3800   H
  -15.6692  -16.7419  -26.0869   C
   19.3679   -8.3994  -17.8410   C
   17.0374   43.8836  -32.8764   C
   49.5042   -9.3204   30.5992   O
   10.2603   15.2664  -40.1170   O
   44.8479  -35.0186  -19.0906   S
   21.0126  -21.2218   15.5487   O
  -30.3781  -14.5586  -48.6745   C
  -48.7399  -32.6037   31.1283   C
   27.9488  -33.5810  -13.6400   S
  -11.3308  -41.5087  -49.2866   H
  -20.6579  -38.0009   13.1263   C
   27.3372  -35.6249    5.9831   H
   -8.0884  -25.1501  -35.9035   S
  -49.5586   26.6998   12.7225   S
   -8.4253    4.8856  -28.9799   C
   -8.2753   27.1279   18.7662   N
  -20.8153  -11.0847   31.3695   N
   28.9964   27.8529   17.2803   H
  -33.6487   -5.8351   46.7179   H
  -37.5097   23.7951   -9.3126   C
  -39.4061  -37.3135   19.2760   H
  -38.7894  -23.7595   21.2813   S
   23.2765  -22.5848  -13.9783   H
   36.9417   -1.6516  -21.5894   S
   -4.2809  -28.0636  -41.3164   S
  -49.4324   27.2327  -39.8282   C
    7.7393   47.7042   25.7972   O
   49.5134  -21.2663  -22.8455   C
   -2.6123   31.9021  -26.2503   N
   -4.2985  -43.6995  -37.2099   N
   28.6958   20.1369   23.7694   H
  -44.1624    5.6965   33.8539   O
  -38.9858  -26.4113  -32.7755   O
    6.0611   32.6793  -45.7575   S
    3.7432  -45.4491   41.3117   N
  -32.0053   -3.8027   45.8286   H
  -31.9990   18.4361   32.5173   N
   29.1308   -1.1101   30.2990   N
   35.6330   41.5347   14.9982   S
   21.0413   21.6517   39.4050   H
   -3.2505   -5.1640  -19.4550   S
   10.2231   23.4087  -19.8716   C
   -3.8739  -37.8307  -28.8100   O
    2.6067  -14.5940   -9.8114   S
   22.4098   10.9037   35.8349   H
   37.4763   35.5524  -37.8023   C
  -25.8355   15.3354    0.0252   H
    8.9918   23.7024   14.0156   S
   24.7509  -19.1724   41.1968   O
   18.1041  -38.2112  -14.0579   H
   -0.5039   24.2327   45.7934   C
  -44.4827   49.4694   33.9944   C
  -21.7322  -16.4075   -4.0053   S
   46.8936   28.4465   11.2153   S
   -8.8129   10.8163   23.8997   N
  -14.4304  -10.0698   13.0787   O
  -23.1560  -47.3355   38.9511   H
   45.1696   -2.7312    5.2947   O
    3.8068   36.0670   13.9863   C
  -35.8924    5.9562   42.9787   C
   -2.1518   30.3769  -22.1935   O
   35.5530  -47.7991   -6.3625   H
   48.4533   45.3259  -39.3872   S
    6.0640   33.3427   36.4886   O
  -30.7564  -25.3910  -16.7741   N
   11.0418   -0.9256   22.7323   O
  -39.2783  -35.7475   20.1317   C
   46.1353   -9.9558  -32.5699   H
   -2.2582   49.0265  -40.3093   O
   45.8287  -25.3509  -26.3691   O
   19.8774   23.6866  -38.8118   O
M  END
$$$$
