Generated Ligand
Programmatically generated
Comment line
100  0  0  0  0  0            999 V2000
    4.0108   34.2766  -45.3379   O
  -17.5589   32.8461   36.1362   N
  -37.8362   28.8041   22.3725   S
   20.2435   43.9764   10.5621   N
   44.1009  -36.9382    2.8733   N
   -9.2824  -16.0228  -42.3897   N
  -19.9467  -30.3742   -3.9684   O
   45.2831  -38.9633   38.9680   N
    0.1368   -7.3727   14.1448   H
  -25.8279   -6.4621    3.6247   S
   -1.7508   -0.5477    1.1238   H
   37.4938   37.0046   -4.8655   N
   20.0575    1.1373  -23.4777   O
  -21.7080    4.3788   36.9877   N
   -5.9497  -35.3370   34.4790   N
    5.6202  -18.3490   -3.3408   H
  -19.0498   44.5058  -45.0622   H
  -36.4075   44.0548    1.3570   O
  -46.9093   28.7418   45.4297   N
    7.0383  -11.7834   10.1971   O
   28.0968   28.8629  -42.3543   H
    4.7900  -20.5497   36.7848   N
   -0.3786    8.3637   42.3993   N
    3.9330  -36.3114   14.1786   C
   -4.7946  -25.3816   19.3922   C
  -32.4042    1.1520  -41.0352   H
  -44.2704  -27.4833   43.6648   C
    8.7487  -47.3613   45.8783   H
    3.2487   11.9328  -29.4475   H
   -0.5751    2.4660  -13.1349   S
   28.7754   27.1309   34.0090   C
  -28.8071    1.4499  -49.7257   O
  -49.7588  -32.0616  -31.5397   N
   29.1753   -2.5337   21.1251   N
  -20.9723   -5.5795   27.3423   H
   36.2334   12.8293  -37.5700   S
   42.9715   13.8487   -0.9637   O
   -5.4231   31.6190   25.2512   O
  -24.5345   45.9181   22.1947   C
    4.8978    1.3163   15.8309   C
   35.7885   15.5449    6.0599   S
   -3.7598  -11.9827   36.0422   N
  -20.9860  -44.4126   23.2803   H
   32.7090   20.7402  -45.1543   S
   33.0218   18.0062   -0.4665   S
  -33.4616   25.2382  -23.1628   S
  -10.0001  -17.2477    8.3314   N
  -48.4312    9.6687  -19.3338   O
  -36.8337    3.7681   -3.0192   N
   24.5003  -34.1099   25.1054   C
  -14.5533   23.6537   33.7231   N
    9.8237    8.4514   39.1646   N
   27.6978  -21.2248   32.1922   H
  -26.2124   15.3363   30.1455   H
   20.8427   43.5589   43.1918   H
   36.1244  -16.5163    3.4008   H
   33.0134  -45.2010  -47.3847   N
   45.0219  -36.4991   21.2386   H
   19.6610   38.4834  -18.8405   S
   18.1923   15.9396   19.5674   S
  -13.2294  -16.3968    4.4236   H
   23.3944   31.0631   28.0617   N
  -16.7634   41.0269  -20.2896   S
  -18.6736  -27.5397    5.4551   C
  -17.3722   -0.0333   15.0060   C
   -5.6483   -4.9266  -25.1205   H
   -5.8102   49.8591  -31.0778   S
  -25.9453  -20.8547  -12.2921   C
   -4.5457   48.9826   38.9966   N
  -34.4204   20.2063   25.8412   S
   31.1578   20.8481  -27.2288   H
   21.8067   44.9443  -38.7348   C
   23.8332  -12.1487   18.0883   S
  -19.3982    7.4095  -16.5450   S
  -23.3953    8.9564   20.0157   H
  -28.6881   -7.9171   -6.0760   C
  -15.6721  -39.5676  -33.2604   S
   17.0378   19.0099   -6.0860   C
  -32.5849  -26.0215   -5.9040   N
   32.7153  -38.7481   34.7084   N
   40.1220  -37.5678  -35.6232   H
  -30.4935   27.1903  -37.8884   S
    8.1177  -34.4379  -44.2345   N
   21.6201  -36.1370    6.1680   S
   15.9353  -42.1283    9.1078   O
   20.2418  -24.2931    2.0556   C
  -25.1981  -15.0289  -49.8334   H
  -38.2365  -18.5413   25.0566   N
    0.3704   36.0037   -0.5526   N
  -30.3411  -21.4507   24.5226   C
  -42.0871  -15.3091  -34.8120   O
  -23.8407  -26.7576  -34.1671   H
   43.9925  -34.9793   -5.7215   C
   44.0124  -14.5987    9.6799   N
  -19.2310    5.0309  -29.7079   N
   -4.4868  -13.3647   -2.3036   S
   34.3361    3.1420   20.9206   O
   -2.7967   39.8454  -16.2374   N
  -11.5501   -3.4561   -3.6462   S
  -18.1609  -35.1977   29.5104   N
M  END
$$$$
