Generated Ligand
Programmatically generated
Comment line
100  0  0  0  0  0            999 V2000
  -20.7791   33.4939   12.1223   N
    2.7911  -49.1678  -44.1126   N
  -48.3513   -4.2721   26.8153   N
   46.7638  -33.4766  -17.4592   H
   37.1140  -42.2751  -49.5108   C
   -5.5374   20.4490  -19.3313   N
  -35.2163   26.7052   -0.8906   H
  -18.5501   25.5645   40.2736   S
    7.8129   10.8518  -27.1006   O
  -22.1700   36.4023   10.7659   C
  -38.8751   42.2265   21.8870   O
   41.5042    5.2427   42.3286   C
  -29.4283    2.0853  -12.5032   S
  -35.8579    2.5611   -3.2953   S
   40.4173   -3.9446  -43.8660   S
   38.6575  -44.6204  -30.1375   H
  -27.5296  -49.2699   15.9894   O
  -23.6033   35.0561   17.2990   N
  -41.2771   -8.9788   -2.6140   O
   46.2849   40.1757   36.3132   S
  -17.0187  -28.5579   -2.5006   H
   22.1884   25.3782   16.9226   O
   44.0853   32.8818    5.9991   H
  -49.3887   -3.1435    4.9139   H
  -21.5852  -39.4719   17.0798   S
  -43.9285  -43.1011   16.9998   H
   -6.6003   20.4290   10.6520   S
   -1.8489  -31.2938  -26.1246   O
   31.6240  -28.1345  -46.7250   S
    1.0215   -5.5950   31.3548   H
   25.8637  -20.0922   45.5268   C
   -6.3347  -12.5351  -48.1744   N
   -4.1800    8.4023    8.6101   S
   29.1562   -8.9943   23.2329   C
   -0.8831   45.3779  -35.2973   H
   41.7896  -40.6491    5.4602   C
   23.9318  -34.5428   -7.4431   C
    0.5713    8.0357  -18.8452   C
   -7.7352   42.1719   -0.5195   O
   16.4854   -7.6796   -5.2257   H
    5.7134   22.4578  -13.8622   N
  -35.0451   23.5309    6.2585   N
  -32.7219  -42.6823  -18.6630   O
  -12.9986   26.5912    1.6116   N
   38.0571   -0.5975   35.1220   H
  -32.6674   48.8392   27.6535   C
   47.8269   21.9935    7.4807   N
  -24.3353  -24.7596    6.4888   O
   31.7996  -43.8814   14.6555   N
   46.9208   45.8475   17.5744   S
  -45.4706  -28.2235   31.7099   N
   -3.7200  -25.9067  -37.3230   S
  -34.8643  -42.8068  -10.3999   O
   35.1963    1.1500   11.7797   S
  -34.2018   23.6463  -18.1834   N
   30.9549   -6.8947  -14.4455   O
  -24.0700  -37.9622   48.0768   C
   11.5468  -45.7032    9.4879   N
  -33.8415  -28.1327    2.2630   N
  -46.2503    1.7136   33.0198   H
   10.4164   31.3765   47.9134   S
   18.8998  -39.3698   37.3648   N
  -48.4193   15.8243   -8.8008   N
  -28.6372    8.6284  -22.0008   S
  -20.4672  -11.3590  -33.0614   O
    7.5669   30.5195   39.2363   O
  -41.7970   17.5468  -37.1304   C
  -20.1317  -37.0176  -39.2273   C
   27.5610    8.5738   27.6731   H
    0.4493   42.4433  -41.3752   N
   14.5082    6.2727   -9.1250   C
  -20.9220  -33.4689  -32.0060   N
   -7.3506   44.7988   48.6419   S
   32.0808    0.0927   28.8595   O
   32.5029  -13.1383   46.3910   N
  -27.9002   49.2938  -44.8333   C
  -27.5470  -19.2844   -2.0288   H
   26.6704   47.0481   49.4585   C
   32.0086   43.5184  -46.7348   C
  -31.0437  -48.7928  -19.1907   S
  -36.2897   10.6238    9.7637   S
  -37.3191   43.9308   31.8116   S
    9.9324   20.7183   20.1254   H
   -9.2732   32.0335  -35.5411   H
   19.9476   28.1067  -33.8478   N
   20.0475  -29.9885    7.9653   O
   -4.6660  -10.4206  -39.5339   C
   -3.9501  -34.1316   21.1189   C
  -24.0845  -13.0391   -8.9301   O
   19.5276  -23.9340  -12.3940   C
   40.7328  -21.6875   28.9006   C
  -18.0977  -47.1778   42.8779   O
   45.4001   25.0806  -39.8010   O
   48.3170  -31.2173   26.1778   C
  -43.7704   14.5359   -4.1861   H
    4.6809  -27.3307  -22.9289   S
    4.0550  -33.3238   18.8876   O
   23.3738   44.3557  -40.9378   C
   39.9798   19.7297  -30.1506   H
  -39.6890  -33.5699   -3.3995   O
M  END
$$$$
