Generated Ligand
Programmatically generated
Comment line
100  0  0  0  0  0            999 V2000
  -44.2710   38.7798  -18.2788   C
  -48.2532   -1.5601  -14.4826   O
  -49.9126  -28.9727    3.6763   N
    1.1815   37.0194  -36.3942   O
    3.7675   -9.8112  -13.0787   O
  -48.7480  -34.6091  -38.1870   C
  -22.2907  -33.4193   15.5993   S
  -46.6183  -25.6488   42.8181   H
   31.8065  -33.1182    5.4964   C
   28.1499    4.4303  -38.3433   O
  -15.1508   20.2610  -20.9895   O
    3.4437   15.9370   36.7039   S
    6.0847  -11.1567  -37.2691   S
  -28.9318   36.3340  -40.7920   H
   25.9431   -9.0272   15.7412   C
   -5.3857  -22.8300   15.1202   N
    9.4626   49.7829   36.6105   C
    8.0450    2.9849  -45.9361   S
  -18.9660  -31.6893  -21.5255   C
   47.9308   43.0247  -33.5350   C
   33.6291   38.1656   -9.2048   C
  -36.4399    9.7176    3.8460   H
  -49.0320    1.1119   20.7642   H
    4.8676  -20.5269   -2.2031   O
   32.2680   49.3096    5.4636   H
   19.0856   49.5844  -21.4724   C
  -28.2300   -1.1869  -16.8514   N
   -3.4285   15.0224  -21.7499   O
   48.7661  -15.8511  -25.5316   H
  -32.6163  -18.3080  -35.7230   O
  -48.2640   -3.6351  -32.6334   H
   47.5780   -8.7133    2.7685   C
   47.3119    7.5206   37.4107   S
  -44.9494   30.6329    6.9867   S
    8.9260  -26.0677   -6.5741   H
   30.3073   46.9481   13.0727   N
   40.1043   40.6632  -25.0448   O
  -16.1393  -41.5725   -5.2912   O
   -1.7947   22.3238   10.3583   O
   26.5401   27.0971  -38.7194   O
  -21.0671  -42.4835   20.6280   O
  -25.9505    9.5599  -37.7011   O
  -21.7494    5.1047  -24.3790   S
  -45.2792   48.7470   41.0258   S
   -7.7353   -0.3467  -43.6369   N
   35.8242  -25.3291    0.6619   H
  -12.5683   45.3040   33.6073   H
  -41.3917   -8.3860   37.7039   H
  -34.6316   41.2507   21.9947   N
   17.2690   38.3959   19.9605   N
  -36.0763  -28.9615  -27.7237   O
   28.4690  -49.2119   18.3282   S
   22.7615   47.2900   29.7976   C
  -46.3199  -19.0776  -11.0340   H
   27.0341  -19.9173    5.3146   S
   -1.5037  -42.7301   -8.1719   S
  -25.4450    8.3907   39.9823   O
   -9.7638   26.3622  -29.0499   H
   -3.6844   41.3717  -45.5344   N
   25.7773  -13.3356  -13.5161   S
   35.0198  -38.9823   45.8104   O
   34.2094   36.5004  -22.3899   S
    3.5794   44.3761   -8.9067   O
   14.0818  -40.7490  -38.6879   S
   49.7055   -1.2296   47.0457   O
   24.3577    6.0588  -32.1326   S
    8.4433  -41.7611   23.4228   N
  -16.3378   39.3235  -15.7598   C
   -8.9479   10.6809   25.3446   C
   49.6844  -20.1484   31.9538   N
   35.4066   -3.0680  -40.3824   O
    1.2290    5.0799  -14.9707   H
  -10.2474   12.4222  -40.3284   C
   -2.3317   29.1390   43.8182   S
  -36.7651   40.9695   19.0477   S
   15.9777  -38.5906  -36.6193   O
  -23.5374  -32.0907  -31.3574   H
   -8.1985   -9.5250   32.7293   N
   28.9506   -0.3854  -49.1420   C
  -14.2477   14.4039   -6.6946   O
   43.2048   43.3768  -22.3696   H
  -20.9959   28.0289   31.4219   N
   18.2497    2.6333  -47.5445   C
   -8.2332   21.0662  -43.1472   S
  -22.2578   23.1252  -26.3734   O
  -47.8013  -26.1012   -8.7777   N
   -3.1516   42.2014   17.9060   N
  -12.0213    1.3963   10.5243   N
   38.4338  -14.5467   -5.6241   O
   28.7263  -38.6782   -3.9101   C
  -38.1096   49.4549   49.9081   S
  -26.6549   45.0723  -40.0645   S
   -0.5589  -37.5869  -35.0833   S
  -24.0738   38.8898  -12.8944   H
   16.0476  -32.4959   32.3719   C
   39.3032  -25.1929   -8.3668   S
   49.1655   -8.7073  -44.6391   H
   19.5145  -42.4443  -30.1168   N
   42.0704   38.2140   46.5481   N
   19.9774  -21.8928    3.6291   N
M  END
$$$$
