Generated Ligand
Programmatically generated
Comment line
100  0  0  0  0  0            999 V2000
   17.1049  -17.6329   32.7924   O
    7.4142  -31.3173  -35.1799   H
  -17.0767  -23.8644   28.6058   H
   27.1698   22.7746  -20.6547   H
   -1.9815    0.7139   32.8573   C
  -44.2156  -45.0601   -6.4322   C
   -8.7670  -38.2689  -49.0829   O
  -25.9061   10.1224  -33.5503   N
   34.1535  -22.9159  -41.1371   O
   26.0335  -49.7741   11.5202   O
  -32.0467  -13.6398   28.0628   C
   33.2876  -14.5725   35.0237   H
  -14.0184   29.4595  -33.2500   C
   -1.3304   -0.5853   44.7547   S
  -13.1062   30.8791   48.3436   N
   11.7718  -24.1431  -16.2588   N
   15.4369  -17.6088   10.2734   O
   44.3006   44.1608   26.4954   S
  -11.3547    4.0718  -15.2570   S
    4.9809  -16.1533    1.7840   H
    9.1913   15.9019    9.6129   S
    3.9208  -20.4591   34.4344   C
    2.7612   -4.3130   23.3440   C
    0.4286  -40.9992  -26.6623   C
   41.1209  -26.1281   37.3649   S
  -29.1177   17.5836   39.8077   C
  -13.9567    9.3764   -6.0852   O
   19.9427  -21.1186   11.0801   N
   41.3616   25.8157   13.3548   N
   -3.1824   32.7545   30.3778   O
   12.2906   13.3461  -47.3567   S
   -8.9759   49.7516    5.7387   C
  -13.8611    0.8386  -23.8258   N
    8.3639  -27.1809    3.6878   N
  -15.5753   -0.8578  -17.6073   S
   26.3706   16.1926  -40.8837   H
    4.8437   15.4270   36.6755   N
   25.1008  -28.4636   43.7491   S
   11.8796   14.9874  -43.5050   H
  -46.0464  -32.9334    6.5624   H
    2.8029   25.8513  -41.4031   O
  -45.9866   33.3430  -13.2621   O
   35.7780  -32.0428  -12.2598   N
  -23.5794   35.0329  -32.0441   C
   46.3038   27.0377   26.2476   N
  -42.6300   24.9567   33.8868   N
    5.3731   28.7223   46.6450   S
    0.6595   30.0122  -46.7632   S
  -19.8236    1.0502   -8.5417   C
   36.0002  -11.3239   -6.8785   C
   32.8077   -0.1616  -30.8264   H
   34.3328  -31.2181  -36.7255   H
  -15.1326   15.1538    7.2668   O
  -23.7133  -11.7700  -46.5032   N
  -14.9436  -17.4720   40.5744   S
  -42.0424  -33.5078   29.5354   O
  -41.0880  -27.4133  -46.9930   H
  -38.8363  -46.6479  -31.6098   C
  -35.0212  -15.2723  -14.2520   C
   -3.1092   18.9182   33.9799   O
   14.5781   37.4751   11.3926   S
  -12.7667  -38.8630  -49.9494   N
  -44.0537   47.5795  -11.9698   O
  -18.0776  -14.5379   31.2083   H
   17.1433   28.2059   12.0416   H
  -43.5496  -30.2051   -8.0976   O
  -23.8452   19.6102   11.3183   N
  -20.9716   45.7296   17.0901   C
    5.1532   23.9416  -43.5868   H
   14.7793  -15.8181   33.4439   C
   -0.7075   29.0714  -46.4737   H
   12.4896  -20.3963  -32.5719   O
   -8.0772  -43.3187   10.4204   O
  -49.1334  -24.4159  -20.7430   O
  -14.2434  -19.6735  -11.9646   O
  -30.2967    9.3998   23.5511   C
  -15.7621  -13.4814   13.6011   H
   -5.3042  -33.5301   47.8234   N
   19.2065   10.3586   25.9983   S
  -48.5403  -49.1367   20.7932   H
   -7.1840   20.4844   23.3962   C
   -6.6720   19.6151   19.7444   S
   43.4627  -46.7267   20.9544   O
  -22.5873   32.2000    9.9639   H
  -11.5108   45.5762   37.0655   S
   38.9078   -7.4586   -5.3649   C
   -2.9200   -4.4304    8.4494   S
   26.8539  -36.6747   30.5970   S
   15.4249  -30.3138  -11.1460   H
    4.3758  -44.5462  -38.4257   C
   33.5722  -11.1953  -44.6122   C
  -21.8916   46.0776   33.0656   N
   40.2061   25.7421  -10.2874   S
   24.4531   20.6223  -47.1901   N
   47.2145    9.9107   -8.1314   O
   27.9937   11.7581    5.7771   S
  -23.5703   28.1075   -0.1217   N
  -23.1784   28.1673   48.8872   O
  -23.6017   16.1041   14.4692   O
    0.0998   -1.7117    9.6330   H
M  END
$$$$
