Generated Ligand
Programmatically generated
Comment line
100  0  0  0  0  0            999 V2000
  -17.7610   -2.9782   49.3695   O
  -20.5525  -39.3656  -39.2416   H
   17.5225  -45.3625   23.0106   C
  -45.8387  -49.0801   48.8663   S
   15.8727    4.8840  -19.1454   S
  -23.9505   45.9182  -22.5186   N
  -35.5305   -1.0901  -40.8212   N
   21.6225   -1.3142   23.2343   O
  -26.5295   12.7106   -0.9069   N
  -30.1743  -46.1126    4.9761   O
  -32.4702   -8.2444   45.1947   O
   29.1342  -49.3159   48.1154   O
   -5.4701   14.7950    8.5002   O
  -17.4405   34.1770    6.3319   C
   45.9365  -13.8128   39.2944   C
   26.2537  -15.3597   23.3724   C
   -6.6702    2.6602   22.2981   O
  -31.8570  -13.4401    7.5967   O
  -49.6666  -21.0209  -24.1687   C
    0.2683    5.5386  -11.0731   N
    0.1845  -29.4990  -42.2684   S
   -8.3262   -6.3746  -41.8198   O
  -39.6175  -30.4587  -12.0403   S
    9.0322  -27.5947    2.0073   N
  -31.3092  -11.9752   21.7650   O
   -2.9640  -16.4974    7.6351   N
   32.8622  -47.8696   16.0914   H
    0.8320   37.6180   29.7776   O
   19.9071  -10.5616   26.8163   S
   -5.2839   -4.7228   32.0360   H
  -14.4291  -28.5610  -21.3697   N
   28.1237  -35.8444  -24.2513   H
   26.9030  -31.3761  -27.2380   C
  -30.5669   20.2134  -26.2776   S
  -28.8009   -1.5849  -39.8171   S
   -4.4502    7.4227    5.0886   S
   31.0378  -12.0610  -45.7213   C
    3.8469  -39.0221  -15.3621   N
    7.3333  -38.8671   39.9777   S
   22.2699  -38.7987  -13.1009   H
  -34.6029   43.5472   16.4100   N
   40.2205  -39.8447   -3.0099   O
  -23.2522   25.9388  -44.9097   C
   -1.4428   22.2489   44.9318   S
   44.6545   32.1026    7.9908   H
  -34.4522  -37.1266    7.1977   N
   45.3015   21.6597   48.0094   S
   -3.7059   16.5152   16.0262   C
   37.9492  -25.5356   41.4937   N
  -34.2022   -1.0259   26.0930   O
  -16.6363  -33.3396    0.4566   N
    8.5498    0.2180   29.1522   C
   47.3096    6.2630   41.5946   N
  -24.4371  -44.4582   31.2729   S
   -0.8999   41.7305    5.2144   O
  -11.4310    6.1011  -46.6291   N
   -5.2508  -16.2734   39.1752   N
  -13.7507   24.6183   38.1052   H
    8.6588   30.2399  -44.2017   O
   -6.5841  -45.3261  -29.0436   N
   32.4174   39.8782   11.7466   C
  -28.0512  -39.0865  -25.7174   S
  -13.8343  -27.1042  -16.8399   S
  -13.8286   40.3207  -16.9251   N
   -6.8981  -33.1037   21.4024   S
   14.5300   -9.2016   40.3902   H
  -30.6680    9.3960   37.2913   N
  -24.6001  -27.4175  -24.5651   N
  -45.3322   -4.1920   15.7512   C
  -23.4978   25.5851   -8.3339   C
   23.0974   11.1573  -10.4448   C
   -2.2888  -13.8958   -4.1530   H
   -1.4073  -25.6575  -27.1824   S
   14.0380  -38.4497   17.1995   O
   21.8804  -41.7082   -2.7381   C
  -12.9665  -45.6920  -49.5772   S
   37.9887  -10.2575  -49.5931   N
   -2.2269   20.2066  -41.9104   C
    3.4078   27.8150  -42.6025   N
  -11.7420  -22.0582  -32.8439   C
  -16.1958  -31.7023  -16.5186   O
  -42.4175   17.7256  -23.8857   S
  -33.5570   40.4021   34.2643   N
   43.4647   49.5878  -44.2758   C
  -11.8169   35.6495  -10.6749   H
  -36.1345   -0.7664   10.8538   O
  -24.6756    0.0544   27.0413   C
  -44.3854  -18.4196  -31.6869   C
  -12.5832   11.8111  -37.3690   H
  -46.2109  -37.4933   -6.0129   H
   -4.5445   15.1375    6.2404   N
  -12.7626   30.3916  -28.1149   O
   30.0114   21.7879   17.7494   O
  -14.7504  -31.9283   -7.0526   S
  -41.7674   48.6855   -9.9729   H
  -39.1044  -31.7979  -42.4521   N
   20.0040   -1.1487  -27.1034   C
  -41.0824  -43.5456   -3.1753   H
    3.5944    3.4089   31.7382   S
   43.7427  -47.8637    1.0249   N
M  END
$$$$
