Generated Ligand
Programmatically generated
Comment line
100  0  0  0  0  0            999 V2000
   42.9195  -45.8931  -44.6813   O
  -24.2687   21.4197  -46.9111   S
  -22.0719   27.6210  -12.4503   C
  -31.5748   -2.6038  -11.5047   H
  -18.3040  -23.4849    7.0493   N
   26.2341   30.4006  -39.4287   H
   22.0717  -39.6405  -35.2462   C
   32.9234   47.7339  -29.4762   S
  -48.4089  -30.2681   38.7900   O
  -49.9697  -27.5769   32.1199   H
    2.3951   14.2267   -5.1860   H
   -2.3781  -45.4901   31.7166   N
  -17.9015  -22.2491  -41.1957   O
  -28.5108   10.5672   45.3342   O
   14.5191   32.7266  -36.8008   C
   25.8914  -24.8666   17.5015   O
  -35.3281   37.3876  -42.8920   C
  -20.5705    0.6404   19.1036   H
  -41.7897  -38.3073   44.2798   H
  -29.3580    5.9719  -44.3198   O
  -11.5235   48.0283   -5.4972   S
   49.9271  -16.8590   48.8097   S
   10.6744   45.6866  -14.6488   H
   31.0952  -38.5931  -18.1365   N
   39.7162   -5.5104  -36.9664   S
    5.9500  -24.4277   10.9245   H
   38.0095   13.1324   45.3234   O
   12.1774  -29.7042   -3.4811   S
    9.9017   21.4154  -35.7782   C
    8.9745   13.1766   44.7768   S
  -49.9275   26.3007  -38.9806   S
   31.3215   42.6819  -36.4145   C
    7.3884   14.1946  -44.7068   C
  -25.0953   -4.7629   31.2398   S
  -15.0152   35.8032   18.3392   C
   25.4799  -39.2821    5.2083   C
   30.7732  -42.0740  -25.7648   H
   23.8369   33.9288    8.5386   H
  -20.7714   31.8628  -49.1068   C
   35.0005   18.6207   23.3014   H
  -13.6390    7.1978    8.3946   H
  -42.8894   31.2964  -11.3560   H
   -4.2595  -36.6313   13.0081   N
   11.4690   36.3531    7.2278   O
  -21.3483  -42.4973   15.1573   O
   42.8991  -28.3573  -42.5178   C
   16.2621   41.0480   14.9296   N
   -6.1731  -26.6586  -18.8786   N
  -29.0368    6.6169   -2.5052   C
   17.0482   43.3083  -29.7437   N
  -37.8150   44.7534   49.7311   H
   14.4779   10.2149    1.3340   C
   23.5093   41.0719    2.7054   O
  -31.1997    0.4431  -28.0251   N
  -45.3960  -29.2705   12.9985   C
  -26.9855  -13.8954    4.1300   N
  -26.3637  -21.8666  -44.0659   H
  -29.9964  -47.7340   33.0963   C
   11.6820  -46.7695  -46.8594   O
  -49.0567  -44.9073  -20.1734   O
    7.8378   41.4830  -46.7500   C
   -4.6775   -4.8938   -4.7977   S
   31.9876   29.7142   -8.3916   C
   14.4336   21.5265  -15.9140   H
   33.5293   16.4137  -35.5262   C
  -14.8960   33.9296   25.5285   S
   -9.5696   39.3449  -34.6156   O
  -35.7008  -36.1731  -24.4886   H
  -34.1344  -30.0513  -22.1693   S
   12.7405  -19.3039  -10.9833   N
   35.9925   -5.1937   -0.3928   C
   28.0034  -26.7502   37.4971   H
   22.0308    0.9160  -30.5033   H
  -12.7426  -42.9702   38.8047   S
   28.9083   -2.8880   26.2115   H
  -31.8999    1.4321  -23.0823   S
   21.2405   -7.2581   42.8661   C
   -6.0237  -43.0060  -23.1529   O
   20.4856  -43.8049  -42.3546   S
  -28.9287    8.7833  -20.1672   S
   -2.1356   13.8753  -28.7453   C
  -19.7560    8.0230   26.0103   C
   23.9387  -14.5700   17.3868   N
   15.6281  -41.7331   15.1107   C
  -30.0134  -22.5988   36.9527   C
   28.4896   41.6820  -15.4474   C
  -18.5687  -15.5552  -18.6950   O
   11.7483   45.0269  -37.7456   C
   42.0027  -26.8377   10.4422   O
   -8.6436  -39.8971  -21.5324   C
    0.5119  -22.3389    3.9605   H
   -2.6209  -49.8068  -35.6642   S
  -36.3178  -34.8502  -36.4337   N
  -24.0114   28.3179  -21.9804   S
   28.3864   12.6577  -24.6465   S
  -24.0414    7.8679   11.3475   N
   42.6104  -28.8088    6.6860   H
   14.1953   47.8421  -28.2805   N
  -40.3215  -46.7377  -17.5058   O
  -44.2151  -18.7667   11.6850   H
M  END
$$$$
