Generated Ligand
Programmatically generated
Comment line
100  0  0  0  0  0            999 V2000
  -45.1978   18.9586   49.9556   O
  -25.0364  -22.3154   17.5167   S
  -16.0867    5.0821  -39.6180   C
   39.8879   31.5458  -47.3835   N
   -2.0262  -39.4961  -15.7057   S
  -23.4391   16.3293   17.9267   S
    0.2765   -5.0086   -8.5506   C
   15.0986  -36.6364   37.0857   O
   -1.8760   -7.4661  -41.4439   O
   18.8338  -27.1853   34.6563   N
  -26.3212  -13.3707    1.5614   N
    3.5225  -26.2246   -7.2858   S
   46.1200   -0.9343   35.7219   O
   45.2073  -40.0472  -34.2601   S
  -25.2933  -16.0244   32.4353   N
  -39.1589  -26.3854  -30.3186   N
   15.8415   25.8968  -42.1869   O
   33.9357   29.6415   34.2376   N
  -19.0172   -1.8269  -48.8437   N
   16.5991   38.4169   35.4018   N
   15.9201    7.7814  -20.7836   O
  -26.6605   46.1493  -46.9790   C
   13.9693   25.0839   17.5475   O
   33.4525   22.0339   45.3505   N
  -27.6790    9.9617   19.2806   H
   19.2904  -32.4570  -49.1251   O
  -14.0587    4.2833    5.4085   O
   22.1375  -30.4013  -18.2928   O
   11.4024   -5.0067  -27.6232   N
  -46.7240  -35.8867   30.9110   H
  -38.6822  -11.7783  -14.0096   S
  -38.9269  -18.3042   45.9873   C
  -27.3225  -23.5509  -12.3412   N
  -42.5476   43.7484  -32.4412   O
   43.1411  -15.7151  -37.6877   S
    2.7121   43.4049   46.1548   C
   14.1120  -32.1959  -19.2889   C
  -48.4396   -1.5731   29.2109   C
   18.8802   37.3552  -38.0849   C
   43.2063   -6.7748    5.6452   N
   -5.8410   23.6073  -38.7132   C
  -10.8805  -35.6435   11.9764   N
   25.1635    3.6463  -20.6319   O
   47.8981    4.8531  -34.1335   H
    6.2481  -24.0313  -37.0124   H
   36.9472   -0.4951   13.6919   O
   12.9915   49.1280   12.1375   H
   13.6807   10.5424  -20.0963   S
  -36.7376   20.0266  -30.5246   O
   38.2604   12.8226  -34.8206   O
  -24.4138  -25.5913   27.8662   H
   21.5341   47.0553   12.7035   O
  -27.6910   33.9404  -14.8477   H
   40.8514  -45.4281   44.5552   H
   -5.3941   22.7729   24.6368   H
   20.6811   15.8887  -33.4981   S
    7.5080  -49.5875  -16.6446   N
   -0.9411  -37.8743   21.7216   S
   -3.9562  -10.9601  -47.4858   H
  -11.6837  -14.6828  -39.6872   H
    7.7201    3.3616   25.6617   O
  -46.0323   16.1357   25.6457   C
  -15.7805   28.3947  -19.2110   O
   34.4115  -19.9082   46.2021   C
    1.4258  -21.5061  -16.1958   O
   46.4647  -29.1297  -48.8224   N
   49.5243   18.0229   37.7577   H
   30.3655  -11.9549  -12.4961   H
   29.3398    9.4767  -37.3946   O
  -33.2815  -22.1689  -22.7166   C
   25.8003   -5.2917   46.6469   H
  -10.4869   22.3000   22.1965   C
  -23.5151   40.9301  -44.3338   O
  -23.9761   15.8601  -38.5866   S
  -32.7785   41.9890  -28.8439   H
   29.7336  -31.7111  -31.5560   H
   40.6153   -7.6973   -4.3657   C
    8.3818  -32.8222   21.7969   C
   40.3481    9.4580   47.8762   O
   19.6297   24.5677   14.3278   O
   15.7971    4.2807   -0.0092   C
  -30.1448   48.3659  -13.7342   S
  -23.8134  -44.1843    9.1919   C
  -32.9798   -2.4918    7.4549   C
    4.5366   39.2069  -38.2096   H
   -3.6014   -3.3528   -1.2932   S
  -20.6099   36.6605  -22.3057   C
  -49.8178  -15.7373   49.6248   S
   -6.7520  -33.7814  -32.2303   C
  -27.8410  -10.1809    5.4122   N
  -15.4942   45.6261   -0.6965   H
   22.4209   22.0091   -7.2097   S
  -27.1663   37.9011   30.1735   O
   16.4931  -30.1297  -39.4127   C
    6.4160  -31.1581   24.7201   S
   -9.8748   24.9673   36.4462   N
  -25.0557   28.7133   -0.2325   S
   47.1211   46.1568  -20.1283   C
   40.0449  -17.7900   41.5652   N
  -41.4796  -13.6398  -31.6068   O
M  END
$$$$
