Generated Ligand
Programmatically generated
Comment line
100  0  0  0  0  0            999 V2000
   35.6861   17.1426   31.3586   C
   44.5723  -30.3083   22.0505   N
   35.1592    3.7624  -25.4645   C
  -15.3093    9.0467   -4.5368   N
   -9.9277  -16.7999  -27.7786   O
   21.9505  -26.9144  -43.6936   C
  -30.3224    1.1321  -18.1996   N
  -12.3511    2.1730   43.7024   N
  -29.1112  -43.3935   34.2457   O
   35.7454   25.3106  -24.1261   S
   31.6055  -42.5715   27.8970   O
   48.9562   -0.5891   20.4981   O
   48.3517  -46.0424  -31.9464   O
   -0.6335  -41.3997  -27.3797   S
    5.2875   37.2756    5.2982   C
   33.0381  -15.9449   43.6056   N
  -11.6852   21.6613  -32.9249   N
  -22.6511   11.3864  -38.8942   H
  -20.2963   28.5933   22.9088   O
    0.3437   46.6316  -20.0291   H
  -21.3008   30.1215   46.5000   S
  -32.1346  -22.9927   20.6048   N
  -15.0239  -37.1323  -28.0718   H
   12.1313  -32.3063  -28.1345   C
   23.1013  -36.6376   -1.5713   N
   12.0377  -41.7468  -24.7698   C
  -40.4804   37.4924  -31.1090   S
   18.5094  -19.8851  -15.1784   O
  -25.2791  -17.0135  -21.0256   S
   41.4686  -48.8865  -47.9904   O
  -45.7809   27.1779  -30.0932   H
   33.7918    7.9134  -46.8164   S
  -41.9002   40.5205   17.6804   N
  -29.4183   43.7000   15.0772   O
   -5.2887   -0.0072  -45.7836   C
   35.2592   12.6568    1.5534   N
    6.3409  -26.8881   13.1646   S
   43.9426   44.8505   30.1461   H
   11.8250    3.6119  -24.3540   H
    2.1955  -47.4426  -40.7990   H
  -23.5891    2.0257  -38.9850   H
   26.4603   37.7289   38.6735   C
   13.3592    3.0324   48.9191   S
   17.0411   43.9482  -41.8871   S
   43.1716  -17.8822   -8.3118   O
   23.5091  -22.9338   41.7687   N
  -33.1689   13.8052   46.4740   N
   19.5001   13.1580   33.8241   O
   -1.6653   48.8118  -18.6124   N
   27.5211  -48.1702  -26.8224   O
  -46.1376   28.7166  -35.1931   N
  -45.2033   31.8634  -43.8602   C
   28.9598   32.8227    2.1850   O
  -15.1974    5.1717  -44.0979   C
  -32.3396   43.5104   42.4003   C
   44.8087  -42.1443   25.3507   N
   18.3854   44.7094   34.0084   C
   49.2747  -47.8841   18.4972   N
  -39.0133    4.7714   48.2101   N
   16.5113   33.9896  -16.1058   S
   35.8360  -38.4197  -44.5745   O
  -49.1630  -10.4589   17.9820   N
   -0.5134   30.4361  -16.8189   S
   15.7201   42.3855   -5.3933   S
   -1.8817    8.6610    9.8686   H
   28.0665   34.0856  -30.3194   S
  -25.4634   12.6503   21.2793   H
  -43.0559   39.3705    3.0395   H
  -28.7805   45.8365   45.5154   H
   26.0557  -36.5282   21.2652   S
  -26.0767   -7.9067   44.3433   O
  -22.4600   42.1019   38.6200   N
  -34.1157  -31.6674   45.5521   S
  -43.8594  -45.5356  -49.3679   O
    3.0450   -9.5467    8.3307   H
  -21.7639   13.7782   41.6198   C
   43.8822  -13.6940   46.6001   O
    3.9064   24.2019   -0.6083   N
  -13.2525   -0.8392   11.2499   S
   37.9311  -44.6225   46.1251   N
   38.4703   32.4696   19.3570   S
  -11.8903  -29.4293   -2.1107   H
   -8.5905   49.0828  -24.3043   C
  -13.8333  -14.5995   24.7606   S
  -41.8007   10.5122   49.7676   H
   39.4920   -1.2182   -3.4440   O
  -33.0004   48.7918   47.6383   H
   17.9830   48.3019   41.3439   S
  -48.5320   42.5783   -1.1073   N
  -26.0859   16.9425   -8.6432   S
  -33.7752  -42.6096  -10.4931   C
   49.2462   24.1478   10.5578   C
  -23.7168  -36.2587  -18.7680   O
   21.6546   -4.6738  -26.5454   S
    0.0617   41.5031   -5.3819   S
   46.0364   -7.6989  -39.7293   C
    1.6117   17.1365  -29.0590   H
  -36.4934    5.5417  -34.9830   C
   10.5830  -30.6134   -8.9483   S
   30.5253   45.5753   46.4677   O
M  END
$$$$
