Generated Ligand
Programmatically generated
Comment line
100  0  0  0  0  0            999 V2000
  -33.6239   13.9587  -30.1987   C
  -42.9102  -17.2287   32.9958   H
   -8.4493   26.4776  -23.7346   O
   43.7037   38.0195   17.1916   N
   38.7056   -6.8791   30.7424   C
   19.6766   13.2362   48.3126   O
   26.1811  -12.3149  -48.8846   S
  -35.3455  -37.7486    5.4303   S
  -18.5644   39.2638  -16.8334   S
   15.0490   -3.8571    3.9162   O
  -18.0711   -8.3382  -43.0300   N
   -8.3354   44.2408   10.6785   O
  -42.0833  -32.7122   48.0116   C
   11.4365   -0.5721   33.4077   C
  -44.4875    8.5274   34.3570   C
   10.9029  -48.0792   19.2709   S
  -23.8958   17.0475   39.9217   H
  -12.9442   26.3031   -1.8193   N
    3.2281   19.8345   36.5734   C
   24.6373  -42.7189   36.3422   C
  -20.2062    1.4913  -38.0983   N
  -41.2916    9.9927  -42.4578   O
   26.5468   20.0368   10.8871   S
  -28.1802    8.2412   -9.0151   S
   40.2109   11.0028   -0.2128   C
  -40.8121   -2.2575  -21.3720   H
   -4.8240   30.2213   37.6739   O
   17.3774    9.9258   48.3041   O
   21.2217   -2.5350   -9.1125   H
   39.4568   -4.6998    1.4703   H
  -37.0437   18.6233  -19.1928   N
  -37.3309   38.1629   18.6308   H
   33.2632  -31.5135  -11.3126   C
    8.5467  -24.1605    2.4426   S
  -22.7045  -17.2130   21.4101   O
  -18.8123   45.4475   -7.9305   N
    6.1240   -3.9723  -17.3222   H
   33.8396    6.6791  -24.7039   H
   19.3189   43.3375  -15.4565   S
  -44.3457  -30.9400  -43.5806   C
   18.3072    1.8033   -1.1951   O
  -44.8085  -48.5644   -2.4556   O
  -14.6839  -30.1076  -26.9906   H
   43.9637  -26.6426   41.6754   C
   26.3494   30.4658  -10.0472   S
  -24.1137   27.7162   -8.2087   O
  -32.4411   20.8810   37.6251   O
  -19.1273    7.9841  -42.2959   C
  -25.1881  -18.6814   13.9427   N
   45.0526  -42.8387   -6.9555   N
   24.7084   27.2316   -7.3033   N
  -36.4797   25.5755   -5.7245   C
   17.3507    6.2278   27.1050   H
  -18.1057   23.9589    3.1694   C
   11.0923   -0.7568   34.6521   S
   46.4038  -20.6866    9.5059   H
  -25.5071  -10.4048   44.6626   S
  -36.2592  -22.9134  -45.2112   O
   39.8391  -14.3114  -19.9369   H
   41.3264   -8.0946   14.4147   O
   19.2483    9.6550   49.1297   O
   -2.7893   16.9540    7.2671   C
  -13.3683    6.5621   37.7478   H
   19.7298    5.5656  -14.6257   C
   -9.6414  -41.6486   44.3620   N
    6.9678  -37.1743   -8.0721   H
    4.7217  -11.4001   47.5776   C
   11.2188  -14.7413   48.0892   C
  -19.6396   37.9441   30.2380   H
   -6.5794  -49.3557   39.6499   H
  -25.2537    3.7279   25.5111   S
  -39.9732   -8.0191    6.0628   H
  -20.7480  -13.0633  -47.8408   N
  -29.5722   34.3105   37.2304   O
  -37.1118   -9.7970   -4.5768   S
  -33.6963   22.8576   34.7870   H
   -4.7774  -41.1499    7.6763   S
  -26.2218   45.7296  -26.0171   C
   24.2618  -48.4869  -19.3015   C
   18.5712  -39.8395   25.6593   H
  -30.9322    1.4622  -30.9282   H
    7.3762   21.0326   48.1414   C
  -46.2109  -20.4514  -45.4376   N
  -19.4728  -26.2226   36.9804   C
   45.8665  -48.8121   -2.9478   C
   28.9976  -47.9846   45.8266   S
   15.0678   15.9519  -40.2114   S
    0.0433  -22.7615  -13.0954   O
  -40.3086   26.4644    3.9445   O
  -23.4885  -20.3540   10.5419   C
   -8.8813   -0.5132   17.6685   H
  -15.3809   17.2259  -32.3277   H
   39.0749   33.5960    8.2707   N
   40.0515  -27.4310   17.1201   C
    9.0528   45.5945   49.3990   C
  -33.0150  -26.7132  -15.0388   C
  -22.7558   41.5616  -21.4814   S
   -0.1715   36.8691   45.7486   O
   44.3901  -28.7188  -24.0334   S
    3.9648   48.2863  -12.7124   N
M  END
$$$$
