Generated Ligand
Programmatically generated
Comment line
100  0  0  0  0  0            999 V2000
   19.7203  -12.6059   16.7103   O
   31.5465   18.6190   44.5776   O
  -13.9602  -49.0913  -21.1126   N
  -30.5149  -11.9252  -38.5569   H
  -15.3358   19.6859   29.9041   C
   -2.7844   35.8818  -19.3631   C
   -7.9228    2.8443  -42.3370   S
   25.9484   39.7295   24.3006   S
  -13.2536   -5.7070  -32.1375   N
   16.6510  -36.2130  -42.9348   H
   25.0714   13.4696  -37.1141   N
   14.0346  -26.7487    0.1144   H
   46.5385   18.0456  -32.3209   O
   -6.2721  -24.4263  -25.1271   H
   12.3556   -1.0895  -21.1632   S
  -26.1590   -1.5743  -44.9695   C
   -5.3276   32.2042  -14.9012   O
  -33.5347   15.0089  -47.8103   N
   33.0854  -18.9635   35.7801   O
   28.7232   -9.9265  -33.0992   C
   25.8278   31.7859  -46.8450   N
   28.1773   -3.7261   -7.2716   H
   22.9251   19.0648  -14.8921   O
   -6.7480   24.8211  -40.9585   N
  -43.7732  -26.8975   17.4785   S
  -44.5958   23.8710   45.9553   O
   37.3627  -17.5103    4.8281   O
  -28.6188   26.2542   38.6819   N
   37.7886   -4.4262   34.6508   H
  -12.1830   49.7937   14.4088   O
   20.9000   41.8702   29.1595   O
  -25.7134   17.0146   -4.6972   H
  -45.7604  -10.0092   29.8795   N
  -45.1394    6.9201  -25.0242   S
   -4.0028   31.0462   43.7015   H
   -5.5892  -10.0326    7.6203   O
    5.1727   13.6492  -44.8125   C
  -41.1586    1.4778    3.0676   C
   -8.5909    5.3812    2.3957   C
   -3.8157  -30.2720    6.9181   S
   48.4404  -46.6003  -28.7685   C
    0.7884  -12.7466  -44.5203   C
   49.5010  -28.1252   27.5803   O
    0.7169    8.3752   33.3726   S
   33.4700  -11.9266   37.7989   C
  -13.4450   -8.7552  -20.9637   O
   13.9521  -15.2221   48.2745   H
   15.6324   -6.7181   16.0016   C
   -1.0021  -10.4795  -10.0050   S
   40.6687  -45.4031  -20.9875   S
  -36.1955    5.8695   36.3466   S
  -48.5710  -12.0194   36.4908   S
  -13.2702   46.3884  -34.9903   S
   17.4140   -7.2824   10.4615   H
   27.1586  -46.3602   37.8056   S
   41.5572   49.2594    7.3373   C
  -19.5716   47.5175   -3.1629   C
   19.0944   28.1384  -29.3832   C
   -6.3955  -26.9846  -21.9326   H
  -37.5185  -19.9808   19.4223   H
   44.9739   25.2520   39.4397   S
    7.6392   30.7790   12.9699   C
   17.4408  -12.4198   34.0691   O
   45.4430   -8.7934   39.0269   O
  -49.9631  -22.2839   25.8406   C
  -41.9964   46.0015   -8.7432   N
  -15.9608   30.8505   24.2390   O
  -23.7000   -8.1035  -26.4933   N
  -26.8867  -46.1149  -43.8982   N
  -10.5083  -33.5379   -7.7116   O
   11.5031   -7.7705    1.8355   C
  -49.0683   36.9192  -16.2222   O
  -16.0802  -25.3071  -17.9765   N
   15.4878  -16.6847   24.9458   O
  -30.6604   -0.0186   49.1498   H
   35.2542  -22.7673   15.2480   N
  -13.5238   -3.3808   28.2058   S
   14.7152   10.0688   21.5054   N
   21.5757   26.4375  -35.7841   O
   -9.4142   37.0780   32.6795   N
  -22.3247   29.2244   25.4328   O
    2.7649   16.0275   34.3725   N
  -49.9983   10.9798  -39.2594   H
  -43.9280    0.1783  -46.7037   H
   21.2424   -9.6452   -2.1246   S
  -36.9563  -41.4970  -39.4760   C
  -21.8067  -27.9011   47.2589   N
  -27.6100   46.5402   -0.8653   N
   43.7249  -27.3998   -9.0591   H
   26.6950  -36.9136   37.2302   S
  -38.3833  -49.0728    4.6638   O
   -3.3660  -33.6168   -9.5453   H
   18.7988   38.2969  -14.1038   N
   -0.6645   46.6125   33.8627   N
   15.7462  -47.3766  -41.6853   H
  -38.9234  -33.5319  -26.9883   C
   24.9475   -1.2302  -35.1775   O
  -34.9015  -21.8373   30.0692   H
  -37.4507   -0.7382   -9.0501   C
   37.6015   36.8273   47.1496   H
M  END
$$$$
