Generated Ligand
Programmatically generated
Comment line
100  0  0  0  0  0            999 V2000
    3.2479   15.6760   32.0860   N
  -19.6309  -22.4586   27.4700   N
  -36.0462  -35.8506   30.8294   S
  -16.0029  -18.8985   40.1170   S
   46.1661   -3.7078  -27.6232   S
    1.7424  -17.3357   21.0275   H
   26.6795   47.0999   48.6246   N
   38.9862    4.0990   44.7065   N
   16.3123    4.7475  -36.5800   N
   20.4318  -21.9034  -21.6619   N
  -29.1450   23.2077   15.4445   N
  -22.1921   25.7297  -33.8927   C
  -33.2196   -2.1821   -7.0899   N
  -24.7123  -21.2373   38.2307   S
   26.0170   18.9101  -30.9672   S
   29.8635   36.1864  -36.0209   C
  -41.5726  -45.7124    5.2551   S
   -3.5001   45.9822   48.6701   S
  -26.0523  -35.3261  -27.1028   C
   -9.1219   34.4495   32.3143   H
    2.8676   -4.4849  -27.4978   N
  -16.4562  -46.9990    8.8359   N
   33.9371   28.9522   12.3196   N
   28.5107   27.1718   48.5663   C
   49.9735   -9.0614    7.0400   N
  -17.0112  -29.4992   35.5425   H
   39.3925    6.4953   42.5986   N
   39.8025   43.6585   28.0473   N
  -32.4354   45.8774   44.5273   H
   -9.3197   -1.0476   37.9664   S
   20.8580   39.4875   -3.7426   N
   48.5035   42.4660  -40.7929   H
   17.0876  -18.5710   28.2833   C
   -5.0963   -6.7905   37.3370   S
   10.7064   43.2785  -41.4658   O
   33.0606   -0.7045   48.2087   H
   30.6409    7.1628   49.9030   N
  -17.0842  -11.6207  -43.8584   O
  -40.2234  -34.7359  -34.0206   H
   37.0297  -36.8626   -9.5332   H
  -29.4535   48.9337  -27.3570   H
   46.4101  -25.2550   20.8361   N
  -46.5490   -4.8735    1.5706   C
  -12.6373   -6.5238   41.1830   O
  -40.6985  -44.1002  -32.7116   C
   -9.8250  -36.4468   34.0478   H
   -1.1974   39.8664    5.1999   C
   31.8969   -8.4068   29.5307   S
   38.3577   17.9628  -48.0100   C
  -22.9973   18.8792    7.0162   N
   20.9448   -7.0563   20.3778   N
  -16.7051  -28.8682  -45.1657   S
   16.0186  -28.9847  -40.5945   H
   41.1152  -13.8409   42.8766   N
   38.5664   26.9258  -25.5860   S
  -27.4621   -1.0940  -19.1684   H
   33.2455  -12.1466    7.7698   C
   15.3168  -39.8431   12.5363   S
  -32.8103   16.8240   20.9228   H
   21.1700  -21.5852  -19.3352   N
  -20.9542  -29.1270   16.3046   H
  -10.7784  -33.5664  -14.1620   H
    0.2014  -49.4304   -1.2941   C
  -44.7664   47.0007  -25.2060   O
    6.9670   21.9867   47.2859   S
   10.2958  -41.5388  -18.4799   O
    3.8758   22.9407   -1.3162   C
  -24.4355   -7.5039  -41.8260   O
   43.3903  -22.3748  -18.8035   C
   -5.8165   27.9252   21.1757   C
   42.3778   12.3695  -33.8436   H
   -9.0390   46.4478   25.9683   O
   47.5382    0.1414   42.1206   C
   14.2382  -30.7112  -18.8521   H
   36.1830   -9.1775   39.1675   N
  -23.9171   27.8400    1.6078   S
  -45.8811   20.9114  -46.6193   C
   38.9969    0.5816    5.0605   H
   35.5100  -13.2305  -14.7987   C
   10.3456   48.8497    1.8452   H
    1.7889   19.5191  -45.8169   O
   48.9655   34.2165  -12.5878   H
  -32.9117   47.8614  -14.3320   H
   33.9623  -26.0205   38.4112   S
   -6.2596  -32.7688   33.4325   S
  -42.1986  -34.4807  -29.5937   S
   48.0597   34.0644   20.4757   H
  -20.1732  -32.6181  -35.6262   O
   49.0721   24.1290    6.7209   N
  -48.7022   49.7620   -1.8922   C
  -21.5283   21.9884   -8.2119   H
    1.8435   19.3590   26.2236   C
  -14.0135   -5.1227  -27.2032   O
  -15.3595   -5.0605  -40.2786   N
   35.5202   49.0403    4.3542   C
   19.5133   11.0990   -5.5057   O
   -6.8740   22.0849   32.7312   O
  -28.9768   -8.6834  -22.1613   S
   44.5795   30.1010  -38.3010   O
   45.0221   -7.4713   40.2312   C
M  END
$$$$
