Generated Ligand
Programmatically generated
Comment line
100  0  0  0  0  0            999 V2000
   -6.5762  -48.2421   -1.0990   S
   31.7756  -44.7731   13.0967   H
  -38.3024   10.2028  -12.4993   O
    7.3872  -31.7233    6.1379   H
   31.9631  -26.9551   33.8801   O
   17.3808   21.4668  -40.4942   S
  -44.0452  -36.7337   29.8207   O
  -24.3202  -20.1086  -32.3333   S
  -16.8295   24.7813   21.5042   O
  -42.7747  -19.6520    8.8966   S
  -30.7735    3.7768   27.6728   O
   13.0174  -41.3840   36.4835   H
   -1.3313  -24.1566  -23.7763   H
   44.7695  -37.5183  -35.5547   N
   -8.9009   24.0598   28.1462   O
   19.9919  -34.6678  -32.1446   S
   33.7997  -44.2042  -15.8765   O
  -28.6834   48.2989    9.5149   S
   36.8452  -22.5790  -39.4509   S
   -5.0634  -49.3826  -25.2681   S
   22.5395   26.2454  -28.5660   O
   11.3855  -14.8199  -39.5329   N
   37.6255   38.3584   11.0306   S
  -23.2950   31.2134  -21.7982   S
   -5.6688   -3.5515   15.9143   O
   40.0171   19.2148   21.2974   O
  -28.6394  -20.0129   -7.6746   C
   29.1539    4.4879  -36.1026   N
  -46.9254   -3.2027    4.2126   N
  -41.8672    6.0717  -35.1770   O
   20.2491  -35.6995   42.6880   H
   49.0336  -20.1681   27.3759   S
   27.2983  -34.9424  -27.0869   C
    9.3726    5.2435  -44.0272   H
   14.8882   10.8512   -8.6935   H
  -36.2280    0.7716  -40.2050   S
   44.9535   18.6944   44.0718   N
  -20.4802  -17.9600  -43.9081   O
   -6.7329   -1.9763  -37.7411   H
  -45.2779  -49.9827   19.0287   H
   23.1416   -1.8029   39.6313   S
   -0.8122    7.4502   13.1284   N
  -26.5771   47.9718   -5.9925   S
   22.2654   11.4993  -37.6726   C
    7.0692  -45.1630   47.1208   C
    9.1882  -10.7837   -5.5662   H
   25.4336   12.4821  -11.4433   O
  -17.2559   -5.2322    8.7150   S
   33.7879   19.2403  -47.2807   N
  -38.1182   16.0445   -7.0885   N
   41.0738   47.9152  -49.3231   O
  -34.5033   -8.7993   31.9485   H
   20.5322  -29.5436   -4.0114   C
   13.6295   48.3564   11.9653   C
  -41.4509  -29.4692  -48.5518   S
    4.6514  -17.8156   39.8350   C
   -9.6294  -27.8732    0.8146   N
  -16.7173   22.1904    1.2439   H
   13.3917  -39.2037   15.5522   S
    4.2839   -8.7611   47.6742   H
  -28.1259   32.7050    4.1446   H
   -9.2861  -11.8751   19.0772   O
   17.5377    3.9251   37.1480   O
  -43.0221   -1.5484  -13.3198   C
  -30.0565    5.4635  -40.8299   S
   31.4698  -48.3548   23.8244   C
  -24.7322  -45.0030  -29.2770   S
   -2.3677   47.0994  -28.4933   C
  -29.4945  -21.7730   47.1446   S
  -24.8201  -47.3622    0.6939   N
  -31.9755   -5.5487   -5.5438   S
  -16.6776   14.8621  -32.6954   H
  -22.7147   14.1305   49.4873   S
   -8.5338  -10.7216    9.9097   S
   16.3502   47.6371  -18.7457   N
  -13.7889    6.5973  -23.7314   H
   -6.5921   32.6001  -25.1981   H
   28.7100   47.0988   37.5434   H
   45.7583    3.8357   -8.5353   N
   46.9384  -25.2108   28.4062   S
  -19.2544  -42.3338   -2.6409   N
   -9.6673  -12.6934   48.8834   S
   23.3386    3.2611   41.3745   O
   30.4297  -32.5154   13.8992   C
    3.3240   28.0992    2.8492   N
   17.6539  -38.7139  -47.8909   C
  -37.7552   27.4126   36.7736   O
  -35.6231  -11.6592  -29.7739   N
  -41.1994   41.3158  -48.2067   H
  -10.9791   12.9599  -48.6134   O
   -3.3778   29.7528   15.7183   S
  -16.6053  -11.1859    3.7181   O
    0.8782   18.6243  -25.7007   H
   -4.8946   -4.8089  -36.1775   S
  -29.0114  -15.4167  -13.8486   H
  -42.5095   43.2439    7.7150   N
  -44.1870  -44.9807   46.4365   N
   12.0816  -22.8037  -47.3281   O
  -40.5514  -36.9640   18.6016   O
   -4.7354    5.6613   34.2350   N
M  END
$$$$
