Generated Ligand
Programmatically generated
Comment line
100  0  0  0  0  0            999 V2000
   -7.8182    5.2410   22.9108   C
  -43.9804   47.4072   -5.6784   H
   24.8621   25.4449  -38.3359   H
    7.5090   47.9008   -4.7870   O
  -24.2533   -6.9596   41.5616   O
  -35.8185   21.3063    7.2982   O
   -3.0176   33.0986   47.6912   C
   31.8503    6.6936   36.6519   O
   26.6599   16.1792   -5.4770   H
  -32.0513   23.2932  -34.7332   C
  -30.0722  -25.6231  -19.1898   H
   18.3493  -39.7730   14.5059   C
  -38.9658   49.8609   -7.8275   S
   23.6862   -9.6322  -19.3540   O
   19.5505  -30.1418    6.4296   N
   12.6149  -25.2520  -35.9931   O
   21.2226  -49.6378   15.7660   O
  -39.0909  -12.1560   24.8187   C
   -3.2850   23.1251   -5.2240   C
   -0.5310  -42.0601  -34.9731   N
    8.0072   24.4036  -22.2932   H
   10.5555   16.7346  -29.5753   H
  -29.1984  -35.2578   32.7203   O
  -11.8533    8.9267   43.1599   S
   35.3848  -42.9484   -3.5392   O
   -3.5899  -12.8427  -17.4034   O
  -17.1881  -42.7613  -49.2957   H
   12.3655   25.0393   35.6045   H
   24.5286  -27.7659  -37.2151   S
   -7.2209   41.2861   -7.0117   H
    8.3442   12.2582   45.8345   S
   45.2722  -33.1558   26.9240   N
   -8.4967   -4.0299   10.2133   N
    9.3223   35.6890  -26.3527   N
   37.3418    1.8090   -1.0475   H
   17.1613   13.7582   19.7920   N
   29.6253  -43.6373   -0.7435   N
  -15.6531   18.9366  -47.8204   N
   -9.8986  -48.0046   48.7243   C
  -47.4111   22.9386    9.0103   C
   39.3677  -16.9581  -38.2190   C
    9.1488   18.8562   21.2721   H
   33.3542  -24.5319   10.8094   C
    3.0122   19.3452  -25.8633   H
   19.0537   34.7656   -6.7372   S
   21.7604  -27.8762   25.4814   H
  -14.3402   37.8927  -27.1968   H
  -28.5589   22.9431   29.8868   N
  -48.3259   26.9243   43.6687   N
  -37.4788  -12.9906   48.6805   N
   -9.2322    5.8767   -9.0925   H
   -5.2312  -17.3699   24.8533   S
   28.2662  -24.2675  -18.9509   S
  -48.1204  -19.7458    5.9163   H
    8.8264  -10.3440   34.3443   C
   36.6905   -1.3893  -37.5952   S
   -1.3867   32.4939  -37.9905   C
  -14.3713  -23.7168  -13.3637   S
    1.2019   22.6130  -39.1383   N
  -32.5641   -3.0454   33.7076   H
   -4.6113  -28.6334  -24.5617   S
  -43.1484  -11.3523  -22.7241   S
  -35.7443  -39.6080   -4.2638   C
  -13.1485   21.6975   33.9147   O
   36.0980  -31.0111    6.2487   S
  -36.2417    2.3559  -31.7104   H
   -8.6451    3.1516  -27.6701   S
   18.4710   35.6182  -30.7611   O
   24.8060   10.5547  -30.9984   O
  -48.8375  -48.0616  -38.2404   N
   32.8265   18.4144    4.1594   S
   10.8735  -25.7333   19.7041   O
   39.5190  -39.6892  -47.2578   H
   38.5204  -13.4014   40.9127   S
   20.6982  -41.9649   23.2560   O
  -19.3872  -18.1087  -23.7395   O
  -21.6927  -34.4735   34.3827   S
  -30.4621   39.2255  -31.1427   C
   34.6781  -48.9460   46.0411   C
  -23.7958  -41.5347   27.7318   H
  -24.7694  -31.6774  -12.7302   S
   36.3838   17.9674  -39.5767   O
  -20.8984  -42.9306  -47.4260   H
   26.3356    4.5564   -0.8523   S
   44.8380   13.6921   29.1549   C
  -46.7340   27.1511  -25.0473   H
  -12.1773    3.4756   42.9202   N
  -32.3523   45.5466  -40.8900   H
   39.2307  -11.0492   19.9016   N
  -11.5287   24.3515   28.7121   O
   48.2632  -13.5219   48.6370   C
   34.7515  -10.1613    8.2525   H
   -8.2510  -47.7386  -27.1342   N
   33.6431   27.2578  -14.8423   N
   -2.4158   15.4639  -12.3051   S
  -45.8382  -31.8223  -21.4033   C
   17.8159  -45.4247  -15.6760   O
  -27.3506  -10.4153  -20.6967   N
  -16.3544  -14.2383  -31.8038   H
   45.5682  -27.2803   20.8617   C
M  END
$$$$
