Generated Ligand
Programmatically generated
Comment line
100  0  0  0  0  0            999 V2000
   -4.8406   10.1513   24.1475   O
   -2.6519   21.4159   -2.1503   C
    4.6836  -38.7096  -32.3448   N
   16.8476   15.6908  -45.2532   C
  -49.1304   10.4578  -29.4531   C
  -46.9956    6.0123  -28.8752   H
   -1.4556   29.4391  -34.3134   C
   46.7949  -30.1283   22.2471   O
   13.9000  -38.0483  -26.4914   H
   43.5323  -47.5305  -32.1670   O
  -37.4970   40.1943   40.9920   O
   13.8134  -25.6195   31.8112   S
  -23.6920    8.5981   -0.2429   C
  -37.2009   46.2542   24.6319   O
   10.8173   25.7552   45.2854   C
   39.8085  -10.3212   29.0359   C
  -30.9509   25.5344  -29.7246   H
   -0.4526  -25.4062   38.8384   S
   21.7573   47.8786   16.4349   O
  -19.6768   30.9672   45.9796   O
  -27.6458  -19.9435   33.5827   H
  -29.1818   38.4907  -37.7260   O
    1.8504   18.4121   39.4050   O
  -37.8861  -34.6402  -15.7975   N
   32.5204   24.9233   31.1951   N
    8.1083  -14.8092  -13.3834   N
  -13.4824    1.0767  -12.6927   O
  -14.1060    6.9030    4.1883   H
  -42.5202  -13.5933  -17.4044   C
   27.8456    0.4419  -13.2753   O
  -13.2842  -10.8759    9.1948   O
   49.9834  -33.9656  -11.9667   C
   10.8662   25.5248   35.3585   O
  -37.9678    2.2591  -27.8611   N
   41.0700   32.5096    2.5893   N
  -46.8929   -7.9615  -48.2740   C
  -25.7063   37.9147   45.3554   C
  -39.3952   34.3343  -15.8920   C
   -8.1393   -6.4604  -14.4654   O
   15.6635   42.7780  -19.6269   H
  -11.5428  -12.4654  -12.6415   H
   30.8228   48.2068  -14.1699   H
   40.9362   21.2224  -43.7735   O
  -13.8344  -45.0466  -32.6670   H
   43.1485    9.4747  -24.3021   C
   36.8222   16.1478   -6.7979   H
  -27.1824  -26.4952   46.0596   O
    1.6834   -7.9248   43.5221   S
  -36.2148   27.2417   35.8031   O
    4.8181  -11.0217    5.7033   O
    4.8612   23.6118  -17.6995   S
   33.7633   45.6145    9.8762   N
  -38.4908  -21.0389  -30.4833   S
   -6.3003   39.2864   15.7478   H
   32.7045  -12.1115   23.4792   N
  -15.2847    3.8356   15.7875   O
   26.9276  -19.1850  -10.8810   O
  -22.1521   28.1574   22.0259   S
  -29.4340   15.5062   22.9879   C
  -29.2946  -47.1044  -28.6273   S
  -14.0820  -35.8352  -29.0685   N
  -39.4253   32.5814   15.7461   H
   17.9982  -18.6200   33.1085   N
   46.5061  -26.1960   35.8269   S
   31.2899  -31.3886   49.7005   C
  -15.5047    8.5999   -2.5156   S
   33.5437  -32.2860   28.4853   C
  -11.3406   21.1222   18.4430   C
   30.0068  -32.9266   12.1258   C
  -10.2384   -9.1941  -44.4374   N
    8.6852   39.7203  -45.2332   O
  -15.9157    4.2353   -0.3381   C
   24.4552   14.3872  -25.9593   O
  -12.7726  -49.8268   13.9328   N
   15.6737   42.7824   10.3410   O
   29.4838  -17.4594  -10.4271   N
   -6.3993   45.1334   -0.0485   C
   29.0190    0.4527  -31.7740   H
   22.5987   -3.1122   40.7345   H
   31.2568  -29.7544  -15.4228   N
  -19.9726    3.7596   34.2113   N
   28.2381   -8.3533   -4.2793   S
   25.3503  -45.1624  -26.7267   N
  -24.0047  -25.0596  -12.0709   H
  -41.9336  -23.4524   23.6236   H
  -44.4502   25.4776  -12.8652   S
  -25.1634   35.0502    2.9887   O
   36.2351   46.0665   41.1095   S
  -33.3547   -5.4824  -22.3650   H
  -45.3362   22.3091  -44.7088   C
  -29.1867  -40.0343    3.4898   O
    0.6034   -8.4839  -39.2230   H
  -27.8495   -1.5833   46.9287   C
   45.6638   -1.1719   19.7742   S
   45.8336   20.3782   24.3083   O
   11.1955  -46.7701   46.9154   C
  -41.6479    4.6734  -34.6073   H
  -36.4612  -18.5005   25.5496   O
   33.2767    5.0695  -15.7193   C
   34.2206    4.3299   16.0603   C
M  END
$$$$
