Generated Ligand
Programmatically generated
Comment line
100  0  0  0  0  0            999 V2000
  -34.6081   12.5923   -8.3600   N
  -15.2221   47.2984   20.7054   H
    5.4648  -18.2166   10.9382   H
   31.0750   48.9347  -23.2908   N
  -24.1368  -17.6314  -25.2712   S
   38.6643  -48.2284   22.1340   O
  -48.5097   43.2728   14.1925   H
  -27.4270  -19.7538  -45.9537   O
   44.3925   34.0149   -7.6443   C
  -22.9441   21.5722   37.4972   O
   14.4641   20.8150   43.5743   O
   37.3178    1.1910  -11.6497   C
   47.6475  -11.5148  -48.7512   S
  -23.8346   19.6313   14.8740   S
  -24.6326  -18.5594   27.2335   H
   42.5969   18.1732   11.0389   H
  -43.5657  -11.1676   -7.3766   C
   -5.5844   16.0571  -33.8884   S
   46.8894   24.8151   11.7651   O
   47.0745   27.0391   28.7175   H
   14.3629    9.5744   -1.0148   H
   11.3218   19.9829  -25.2417   H
    4.4549  -44.0807   30.3735   O
   49.2760  -44.6097  -24.1680   C
  -10.9078   37.4309   14.7814   N
   38.2770  -49.3404  -19.9452   S
   -8.1244   44.5790  -31.2406   C
  -25.7500   -2.8104  -18.3280   H
  -41.0322   -7.8949   24.6872   N
   29.1739   32.1081  -19.8889   S
  -10.2838  -22.6982   27.0480   O
  -12.1125   16.9049   34.6696   C
  -30.4211   38.5144  -18.3677   N
  -13.4085   12.4997   21.3793   C
   13.7134  -15.3002  -11.6736   O
   29.6220   -8.8658   48.6473   C
  -45.5846   49.0666   49.9246   O
  -17.4667    5.9488  -33.3617   N
  -45.1732  -20.0343   49.4270   C
  -16.8894  -44.1865   -7.9874   H
   45.8667   25.5447    2.1969   O
  -44.8370  -21.0191    0.0187   C
   33.9396   31.8902   -5.1941   C
   -0.0417   40.5865  -41.5808   O
   -3.9473   24.3120   46.6042   S
   10.7187  -37.5048    3.2393   H
   -9.1093  -15.8240  -22.4970   S
  -16.0385   31.0278   44.4382   O
  -28.9689   21.5659  -41.6847   H
   16.9612  -22.7501    8.1199   C
   22.5845   20.4414  -22.1317   C
   -3.2456  -31.6485   41.4021   C
  -19.9880   -0.2734    9.4198   H
  -18.1951  -13.8171  -28.5473   O
   11.3583   24.4159   19.0252   H
  -33.4952  -18.7547  -45.2799   S
   25.8086   12.5629  -21.9203   H
   37.7845   23.3373    0.5991   C
  -24.9292  -14.5165   36.4578   N
  -19.4826   40.0214  -35.9610   H
  -41.6857   31.4730    5.3475   O
  -44.6894   18.4750   18.1167   H
  -44.4662   25.4853  -41.5693   S
   16.4289   18.2861   35.9841   N
    9.0329   44.4818    4.9837   O
    1.1479  -22.1689  -24.3408   N
   -2.1173   32.8855  -41.7893   S
   18.6698   -7.9494    9.4362   H
  -11.0251  -48.3378  -22.6973   S
   26.5499   46.4794   39.8316   S
    5.2661   -7.3114    1.1785   S
  -26.4688  -44.1428  -26.2144   H
   -0.1744    3.6975  -12.5214   H
  -47.5540  -25.9509  -30.2288   N
   48.2538  -13.4213   -0.0959   N
   31.1403   35.9672   18.1335   H
  -19.8561   22.6590  -21.1944   O
  -45.2940    5.3306  -48.2207   O
  -32.0997  -44.5604  -32.0395   N
  -35.9381  -15.9312   20.2266   H
   45.1302   28.8294    2.3871   S
   -0.5322   13.2474   43.0678   N
   23.1694   15.0215   -7.3503   S
  -40.5305   12.9998   20.4805   N
   49.3578   34.5276  -38.3145   H
    5.9869  -29.4180   29.2762   C
   12.8269  -43.2322    9.6561   O
    9.4840   -7.9028  -36.5653   H
   40.0478   42.5965    6.6526   N
  -41.0066   -6.4985   13.2143   S
   18.4239  -14.9055  -15.6811   N
  -12.7214   17.3823    4.3465   O
  -44.9960   48.3554  -43.3490   H
   -8.5851  -43.1750  -17.9533   C
   19.6745   23.0526   48.3794   H
   -8.2889   41.9799   15.8581   O
   21.7191  -26.8193    0.5254   O
   20.5010   -4.8533  -45.4005   C
  -29.6277  -27.2469    5.1686   N
  -40.2689  -13.2826  -16.2664   S
M  END
$$$$
