Generated Ligand
Programmatically generated
Comment line
100  0  0  0  0  0            999 V2000
  -27.6253  -15.9410  -36.0827   H
    3.7131   -1.4534    9.3291   C
   -4.5679   13.0656   11.4197   O
    5.8330   34.7664   40.5510   H
  -12.2607  -43.4179   26.5070   O
   14.6103   46.8986  -48.5384   C
   21.3989   38.7109   19.7648   C
  -43.9898  -12.6659   13.2186   O
  -31.7296  -16.5339   -3.8788   O
   -2.1059   15.1447   -0.3147   H
   20.8807  -25.7382   49.1118   O
   43.5853   16.0093   26.1963   N
  -12.5062   -0.0516    3.0072   S
  -35.0790    4.5366  -11.2922   N
   43.3825    3.4798  -20.0629   H
  -32.9375   30.7516   29.6161   C
  -45.2585    2.0644   31.0418   C
  -43.9871  -39.3705  -19.3906   S
   15.3945  -23.4356   27.5895   S
  -18.5558   11.4146  -38.7442   S
   -4.2977  -16.4453  -18.8508   S
  -28.2076  -27.3694   12.2020   H
   21.2533   25.0626  -39.9433   O
    8.0044  -46.0649  -29.6767   S
   -1.4082   46.1888   -2.1868   S
   -1.6951    5.2421  -29.1704   H
   20.9878    0.3488   42.2287   N
   21.3863   24.4614  -42.2960   N
  -28.7066   -4.3164    8.6577   O
   40.3726  -19.9379   19.4726   O
   49.4037   -2.8915  -12.5038   O
   18.3882  -14.7349   -0.5871   C
   10.6301  -29.6701   22.8788   N
  -12.0837  -20.8470   -8.3910   H
  -17.0962  -41.0482    0.0829   N
   48.9526   47.0721  -11.3137   H
   13.8627  -27.6883  -36.1093   N
  -25.8861  -10.5428  -10.8545   C
  -10.5626   46.0433   33.8330   N
  -43.4987    5.7740   24.7588   C
    5.5710  -35.5752   28.7678   N
    7.1334   33.5163   34.5918   C
   -5.7143   26.3477   16.7377   C
  -45.8185    8.8900    0.1552   O
    6.6541  -12.9290   47.9081   C
   49.9971  -12.6476   13.4694   O
   42.7481   39.8108    3.9633   S
   25.3354   19.8907  -33.7260   H
  -41.8527   16.3759   20.5900   H
   36.8430  -40.7620  -15.5312   O
  -24.8284  -38.7096    9.2677   O
   -9.2532  -33.8467    3.9852   S
  -15.2725  -32.7414   24.3800   H
   14.8684   43.3746   32.7933   H
   -6.1967   30.1882  -48.4158   C
   33.5765  -17.6053   14.2518   O
  -28.6819    5.2299  -23.9473   O
    7.4001   26.4358  -24.2655   H
   26.1612   11.9056  -31.4183   O
  -45.7827  -40.9807  -26.8025   S
   41.1659   46.2732   35.7157   O
  -22.2507   17.9254   36.0427   N
  -46.7497  -14.9642   11.0200   S
  -44.1815   45.3589    7.7356   N
    3.5797   41.5804  -42.8927   O
   38.2583   -8.1211   31.0586   S
   32.1837  -22.9977   44.1765   H
  -13.7720  -18.4706  -40.2607   H
   20.0700   44.3385  -21.8660   S
   23.2054    7.5768    6.0266   O
   35.9873   22.2719  -15.1485   C
   23.9510   -6.6210  -11.0141   N
  -19.5850   49.7835  -11.9032   N
  -39.0498    9.5524  -42.1750   O
  -43.1180  -10.1776   16.6768   C
  -47.5047  -32.9667  -10.6173   S
  -13.9360    7.4915    0.2412   O
  -12.5595  -33.8695  -15.9392   O
   29.9707   -5.6923   18.6021   O
   -9.0762  -41.7665   34.8330   C
   22.6723    6.8581   14.0149   S
  -43.9127   19.5828  -41.3734   C
   16.0629   25.4259   40.9304   C
   -6.3369  -39.3046   29.4275   H
  -45.1862   -5.2814  -33.5221   N
  -12.6942   49.1758  -24.7762   N
  -12.4217  -20.2933   22.8917   H
  -28.5125    5.9895   36.8182   O
   17.9459  -29.1863   -9.3303   H
   11.5391   11.4171   16.0074   S
  -45.5063   35.9679  -22.3895   S
   -8.3650   14.1685   25.6477   N
   -9.1044  -11.6528   -3.5964   O
   -1.7859   -2.9882   40.2902   N
  -30.5179   40.3096   13.4676   N
    0.4305   48.1967  -44.6297   O
   43.0449  -16.7204   -6.3668   C
  -38.6477   26.2192   13.5940   O
  -45.7802   -4.2576   37.8806   O
    8.3519   47.5520   29.0041   S
M  END
$$$$
