Generated Ligand
Programmatically generated
Comment line
100  0  0  0  0  0            999 V2000
   15.4190   16.2521   16.5723   S
    7.7382   22.2434   35.7792   N
   15.6632  -33.6789  -38.4534   H
  -35.3145  -40.0038   42.9304   C
   23.0180    7.9210  -16.4514   S
  -35.5458  -10.8913   17.2683   O
  -16.4641   47.6560   13.1955   H
   47.2286  -48.1786   25.6010   C
   47.7552  -21.7240    6.7101   H
   42.9173  -23.6242   23.8274   N
   37.4493   -1.0034  -24.3462   C
   43.3398   20.2011   12.9106   N
  -32.3620   49.5169  -38.5607   C
   -8.4320   37.5704    9.8718   H
   -9.7857  -28.2724   45.3624   C
  -35.1831   16.8315   -8.6543   S
  -37.1845    8.6411  -27.1776   H
  -43.7496    9.8378   42.7822   H
   30.3822   39.5335   27.9985   S
  -24.8425   25.8863   33.7162   O
   38.5533    0.1685    0.1678   S
  -25.8633    2.9588  -18.8160   N
  -40.5616  -46.5383   -7.8984   N
  -16.2823   -9.2738   45.4827   H
    2.5513    2.0709   27.8941   N
  -39.7442   -3.3041   19.0520   O
   29.1823    9.5004  -47.9869   C
   34.0343  -37.6709    1.6333   N
   33.0343   32.3354   25.2852   C
   12.3293  -19.1339    6.7086   O
  -37.0465   27.4544   -1.9797   C
   29.9841  -44.9803   13.7073   O
   -6.5664    0.3477   15.4110   N
   -8.1925  -13.7983  -10.2881   S
    1.4905   25.5634  -45.1089   N
   46.7125   42.8320  -26.3360   H
  -11.5232  -15.4456  -41.8341   S
   42.5639   44.1798  -41.6994   N
  -26.0472  -20.6666   47.4125   N
  -16.6167   20.3021   12.0199   N
   10.7330  -30.3089  -19.5065   H
  -37.7679  -44.6813  -35.2045   H
  -12.8592  -27.1089  -28.1862   S
   -8.8480   32.3937  -23.6959   O
   46.8383   32.6216   33.8695   S
  -18.6072  -35.2894    1.7645   S
  -14.0463  -26.6583   26.9995   O
    4.3931   26.8214   38.9271   S
  -24.1748   -3.5456   27.5489   H
   -9.4602   -6.7353   36.7366   N
  -40.4246   29.7372   -8.7951   N
   16.0102   31.2982   31.4680   O
  -34.7654   30.3227  -17.8312   N
  -28.5862  -34.0126  -32.0453   H
   -1.8264  -45.0238   15.2033   O
    6.7695   14.7921  -37.2471   C
  -48.5902   -9.7485  -26.1327   O
  -25.5392   31.0477  -36.6101   H
  -18.7391   -4.3592   34.3114   O
   32.9848   34.7617   18.8770   O
    6.3860   -2.2716   40.4207   H
   35.0258   35.5281   43.5813   C
  -39.2833   28.3168  -31.9625   O
  -40.6864    2.5398   27.7661   S
  -40.2782   11.3636  -27.2955   N
   36.6980   -2.2855   12.0418   S
  -22.7905   22.1239  -41.3666   S
  -39.8822   -8.4414   29.1728   O
   16.4332  -21.2356   36.4794   H
   43.9511  -12.8683  -34.2274   N
   43.0159    8.2872  -38.1178   O
  -37.6443  -25.0146   26.7955   N
  -19.3242   27.1216  -14.0686   C
   39.3088   45.9698  -46.4442   C
  -12.3382   38.3632    0.1759   N
  -47.7494   -2.5254   -8.8409   N
   33.9807  -17.6245   47.0832   O
  -29.2474   28.6189  -30.9250   S
   28.1637  -39.9073   -1.6117   C
   14.5577  -10.5298  -11.1387   C
  -12.8233   -4.1040   10.8906   S
   31.1687    0.0775   -5.7354   O
  -30.1449  -20.2593   -2.8272   O
   11.5665   21.9077  -36.8636   H
    5.2431   25.2703  -36.2755   N
   40.1392   -1.8930   23.4913   C
   16.2598  -24.6282   31.6775   N
   34.6346   28.0114   15.5486   H
   28.9044  -47.4182   10.7684   C
   32.9661   41.2173  -16.0786   N
   39.6620   -5.0056   45.2499   H
   30.5901   38.9275    5.9146   H
    9.6680   49.1025  -40.1123   C
   -2.6067    5.3621   47.6087   S
  -31.0092   44.5433  -32.2187   S
  -35.9736    5.9493  -33.7843   S
  -40.5736  -15.3785   12.2818   C
   22.5567  -14.8933   32.5085   S
   39.8080  -19.5372    0.7792   C
   48.3842    4.7258  -27.1708   S
M  END
$$$$
