Generated Ligand
Programmatically generated
Comment line
100  0  0  0  0  0            999 V2000
  -22.8819  -10.1939  -46.4082   S
  -19.8379   21.4357  -13.9926   H
   44.2577   -6.5561   11.5311   S
  -48.0984   40.6390  -21.0487   O
  -23.8942  -40.4429  -25.4406   S
   12.6837  -45.8756   11.5373   S
    6.0740   38.1712  -39.0162   N
  -29.3347   28.8361  -46.6346   C
  -22.4751   42.9480   21.5090   N
   23.8885  -13.2056  -19.2230   N
   16.9738   -3.5277  -29.5223   C
  -12.4466   35.9728   16.8625   O
  -25.3562   -9.3632  -39.0045   C
  -25.8871  -43.6957  -14.2098   O
  -29.3206   22.1652   32.1662   H
   -9.5536   -4.8571  -11.1808   H
   15.8764    6.6210   11.7571   N
  -29.0032    6.5247  -17.9709   O
  -42.3187  -27.3233  -48.1464   C
   12.2504   38.7695  -16.3679   O
    3.3034   23.3995   -6.3930   O
   13.5118   -2.5821   22.5910   H
  -13.2451  -37.3116  -42.4258   S
   41.5671  -42.8102   40.9493   N
   41.7278  -19.6643  -43.5722   N
   13.5757   35.5651   -5.3823   O
  -25.4912  -18.3480   12.0784   H
   26.6815   23.8868   47.0699   N
  -33.2860  -49.3960  -16.3867   N
   20.5190   30.3605   39.1364   C
  -21.4279   40.3526   29.3422   N
   41.5258  -42.2568   20.4451   O
   41.4684    0.3136   21.4627   H
    2.1504   33.3941   15.9046   H
   32.7797   -7.7249   11.8581   C
   39.0332  -14.1165   26.4695   S
   23.1654   33.9083    7.6082   S
   27.4868   42.9163  -31.0411   S
   -6.2890  -25.7780   22.2577   O
   25.2202  -26.0258   21.6656   O
   19.4787   36.9265   32.3903   S
   13.3801  -45.6685  -12.7253   C
   20.8766   39.6420    1.9787   O
   21.2831    2.7893  -47.5246   N
   -7.7519   15.2173    5.6128   N
    7.4687   35.0242  -36.2740   O
   22.9792  -35.7327   11.3518   N
   -8.3409   16.6751  -41.9642   H
   16.6903  -36.7856  -15.1537   C
   21.2782   13.5011   -2.9796   H
   -0.3097   44.1657   44.5221   S
  -44.3220  -24.6173  -15.6583   N
   36.6542  -15.0698  -45.8599   O
  -21.2632   -5.5264  -21.4367   O
  -36.2792  -46.1330    3.1724   O
  -28.3881  -43.2140    6.0810   C
   39.7930  -17.1196   12.4211   O
  -34.2352   26.8683  -22.9270   N
    9.1156  -46.1659  -45.7381   S
  -28.4001   23.5059   -1.8231   S
   -1.9050  -19.7383   29.1765   C
  -29.1164  -33.3545  -25.9546   N
  -31.3117  -13.2320  -22.7184   N
   26.8346   42.1881   21.4494   N
   28.7509   36.9904   44.2365   O
   45.5861   25.4874   30.0957   C
   17.2062   26.1366   22.3559   N
    1.9160   25.6731  -20.6919   O
   29.2896   26.4775    4.8379   N
   12.8241   -1.1371   -4.0007   O
   13.4438   20.5256   43.2756   C
  -20.2979   -6.8580   -8.1665   S
   -1.8132   41.6184  -27.1673   C
   -1.0847  -21.3271   -7.4646   C
   -9.8857  -29.0945  -17.4206   O
  -41.8510  -10.8360  -10.7121   O
  -47.7925  -38.3301   27.6573   S
   -7.9823   49.6094   47.6054   H
  -28.2323   27.5718   23.7947   O
  -31.0777   37.9188  -11.8131   H
  -43.3447   31.9793   -8.1405   H
   26.2472    4.9618   -6.3213   S
   35.8203  -34.3456   42.9385   O
  -34.7002    5.0430   13.0933   S
  -14.6730   -0.2807    4.9785   O
   18.2661  -47.5878  -12.5303   O
  -16.1076   36.2998   26.5263   O
   10.6061  -12.4904   44.2503   H
  -47.9528    3.1474    0.0860   S
  -11.0026  -33.6744  -11.6175   C
   38.6827   10.9429  -46.6345   S
  -42.1523  -48.8531  -23.9776   C
   16.0859  -20.2894   40.7362   N
  -10.5477   30.9321   35.0324   C
   -7.8768   -4.0268  -30.2359   N
    5.6118   -8.1171   -2.5008   H
   28.9332   34.2538  -30.6203   C
   48.0997   11.4800  -18.7149   C
   -8.5872   34.0702   39.1604   S
   48.4963  -37.2156  -18.2281   N
M  END
$$$$
