Generated Ligand
Programmatically generated
Comment line
100  0  0  0  0  0            999 V2000
   -7.5876   49.6137   22.5064   S
  -44.2932   -3.7454   -9.1701   S
   19.2788  -33.3459  -49.0487   N
   47.3030   16.7632   -0.5414   S
  -37.7732    1.4976   46.4666   O
  -12.2251   -0.5479   -0.9450   H
   -1.9917   -3.9209   -7.4627   C
  -11.9130  -26.8204    2.6058   H
  -38.5918  -24.2419  -24.7096   N
   -5.6995   31.5192   27.1287   H
  -21.0352   21.3347   49.1055   S
   47.7600    8.5727   30.6848   H
   38.6914  -11.9317   40.4431   S
   37.3470  -30.0162   47.9462   O
   37.8375  -48.2790  -31.9876   H
  -45.5820   -4.2800    4.7629   N
  -31.3411    7.4454  -25.6621   S
  -24.1420  -47.8242   28.9201   O
   45.9986  -20.4473   12.1579   S
  -22.6465  -18.7131    8.4190   N
  -45.6651    1.8798  -14.3952   O
  -40.1471   33.1133   15.6204   C
   27.4272   34.4673   45.7340   H
   10.3078  -32.1773   16.3137   S
  -13.0305  -11.2383  -21.2720   H
  -25.6276   47.4345   31.4753   C
  -40.1117   26.7171    4.6023   H
  -18.6832  -16.1762  -24.7372   S
  -40.3387   22.2075   11.7926   N
  -39.8801  -41.7851  -42.7396   S
   46.4484   31.8338  -46.1989   O
   24.4667  -31.3225   -4.3082   H
   32.8337   37.5767  -36.7581   H
  -26.1860  -11.4441  -11.5774   H
   33.7705  -34.2442   12.6049   O
  -22.8977   42.5687  -36.4367   C
   30.6828    9.0824   18.2778   N
  -12.3619   42.0212   34.4122   S
  -41.0472  -25.9065   -1.9738   N
   -3.9174  -25.1675  -40.6790   H
    4.2089  -22.4217   35.8647   O
   11.5335   46.1331   13.9327   S
   46.0256   22.4610   12.9427   S
  -31.2375  -11.8260   38.4969   C
  -27.9730   -5.1022   -0.4305   O
   17.4751  -35.4731  -19.3469   H
   15.5124    1.8616   -6.4786   C
  -12.8805   38.9141  -15.9091   O
   32.2001   -8.4771  -44.9699   C
   24.5143   30.2689  -21.6713   O
    6.3435  -27.8515   -8.2172   S
  -30.1437  -23.1463   24.5957   O
   17.9100   14.3698  -45.9817   H
  -30.8922   36.2474  -23.8821   H
  -45.1669  -49.5300   29.3990   C
  -23.3106   37.2340  -48.3653   S
  -35.1194   22.6058   10.7417   H
  -38.4491  -46.8094  -31.3796   S
   18.4347  -20.7083   24.9483   C
   -2.6580   -2.7824  -20.1295   N
  -14.1125  -28.7054   -5.6388   N
   37.9803  -10.3842    5.5663   S
    6.3836    0.8625   15.1896   H
  -15.3646   -4.1021  -32.7895   C
   28.5925   -0.5645  -49.0659   N
   30.9394   14.9452   -7.3094   H
    1.4998  -17.0790   12.0474   C
   21.4266   41.0950   20.7653   O
  -18.0163  -36.6247  -28.3429   H
   28.7659   -4.7925   48.9393   O
  -43.7968  -18.4628   18.0960   O
  -11.2229   39.4522  -35.2326   C
   37.9131   34.8272  -40.4212   C
   32.9505   47.2319   41.5416   N
   39.6603  -16.1666   33.6784   S
   22.9301  -23.8054   23.2555   H
  -15.5454   16.6236    2.8894   O
   17.9465  -32.9994   34.0962   S
   41.5967   29.6739  -44.2361   H
   45.7191  -36.6645   -1.6304   S
  -29.8679   -9.2581  -16.9890   O
  -46.6584    0.0376   47.0281   N
    0.9299   21.7674  -10.6172   H
   26.1023   17.5947  -45.4552   N
   31.9438    9.1748   12.1973   C
  -11.3895    3.2588   11.1937   N
   -9.6911  -14.3660   -1.1099   O
   -1.9878  -18.5945   40.1816   O
    3.1536  -14.3749  -38.0489   N
   21.8038  -14.1696   39.8909   S
   17.7106   11.9776   20.4040   H
   39.2292  -31.4899   45.8449   O
   -8.7995  -14.1160  -23.1136   H
  -26.3822  -27.6494   36.8210   O
  -36.8612  -38.0298  -13.0606   N
  -17.2475   41.4920   11.2921   H
  -29.6928  -31.4040   49.8662   C
   -7.7843    2.0292   16.1168   C
   29.8238   46.5983  -26.3774   O
   29.0605   12.4199   26.7165   O
M  END
$$$$
