Generated Ligand
Programmatically generated
Comment line
100  0  0  0  0  0            999 V2000
  -45.9468  -13.8170  -18.1756   S
  -25.7838  -13.6822   -3.2342   C
   12.5251    2.0266   49.1295   H
   22.4287  -48.0468   10.1924   H
   14.8715   31.1988    7.3805   N
  -19.1259  -46.4342   14.2122   N
   -2.2672   44.8114   10.3075   N
  -30.2379   42.2043   16.3765   S
   35.7189   46.2243  -44.3407   S
  -35.9816    1.4777   25.1531   S
  -19.9809   35.9756    6.9372   C
   25.5538  -44.2293  -12.5396   N
   25.3801   39.9219   37.4966   O
   20.5856   42.6513   26.4891   O
   21.9495  -45.7755   16.7595   O
   -5.6306  -19.3531   15.8309   C
  -20.7451   12.7252   44.0251   N
  -33.1296  -29.6573  -43.4397   H
   11.3842  -28.0479   31.3356   H
   24.7986  -46.6277  -11.0416   O
   22.7284  -34.7050  -14.6020   N
   19.6635  -31.8567  -26.4618   C
  -47.0814  -35.7547  -25.1730   C
  -48.2441  -46.1128   -6.6703   O
   32.3725   22.7350   40.3693   O
   38.1825   40.4627    0.5343   N
   13.9833   17.7517   23.4238   C
    2.5577  -37.6514   44.6879   H
   31.2684  -32.6543   37.7332   S
  -10.1098   15.3271  -26.0593   O
   11.8788    1.1779    6.2975   H
   25.3274  -27.9410  -47.2959   N
   -3.7066   14.7262    3.5132   N
    1.8437    1.6672  -19.3928   O
   38.2003   11.5463   19.9253   N
   42.9911    6.4035  -35.2816   S
   34.4063  -38.8276  -44.2842   S
  -39.6393  -24.5053   -0.5234   H
   21.6164   27.8635   -0.3277   S
  -26.3687  -48.7466  -38.1867   S
  -11.5186   -2.9713  -15.7712   H
   -0.1331   22.4910   13.4059   H
  -32.2302   17.8267   12.0035   N
   14.3172  -46.7445    8.5699   O
  -42.3916    1.9514   49.0432   C
   13.7043   28.9761   29.6733   N
    3.5054  -30.8485   15.6077   H
   -8.9970   39.0439  -20.4372   C
  -12.1243   13.3471    6.4569   O
    6.1517   -9.7027   43.7924   S
    1.5616  -25.6073   -7.8212   S
  -17.1138  -45.4718   49.6463   N
   16.9359   -1.4058   32.0948   N
   18.5563  -40.6362   21.1250   H
   34.5319   -8.4429   24.7132   S
  -49.1190  -19.7489   37.8112   N
    1.3887   20.3025   16.9427   H
   20.9126  -43.3800  -43.3970   S
  -34.8125   44.6544  -19.0646   S
   31.1720   29.9063    8.7936   O
  -18.7919  -34.5467  -24.9977   N
   -4.5423  -23.3800   20.1943   C
   -6.4700  -12.3152   46.0208   C
  -10.1732  -42.2405   33.4281   C
  -31.0447   49.7735   30.7163   H
   15.8261   36.4131   21.3970   C
  -35.1740  -44.5399   39.7111   S
    7.8452  -49.5549    0.6954   O
  -29.9023  -27.3574   45.1546   S
  -45.3545   -8.3869  -34.0796   N
  -29.7167    5.0809  -10.1685   O
    3.1795  -44.4596   -1.1876   C
  -31.7812  -23.4089  -46.7791   H
   -8.3514   -0.7679  -44.6067   N
   46.0259  -48.8247   39.6807   N
   46.4818    8.4618  -29.9429   C
  -13.6051   32.2768    9.2933   C
  -28.4337   45.1088    8.3593   N
   35.0671   41.6724    3.4865   N
  -10.9767  -40.4155  -30.8962   H
   38.0353  -37.9166  -28.2160   S
   41.9498  -23.0058   20.8236   C
  -22.9378   47.3674   29.4492   O
   23.2897   17.4553   30.2067   O
  -37.8015   -0.1386    1.0591   S
   -8.4531   40.2161  -27.6544   C
   -7.3686  -19.4558  -26.7612   S
   -7.0335  -12.5404   27.1421   O
    6.7380   45.6868   43.5850   H
  -22.0492  -20.6522   -6.1871   C
  -20.5990   -1.2330   30.0121   S
  -16.1701  -42.4231   38.4576   O
   37.3853  -16.2418   10.0806   H
  -10.5238  -31.9087  -35.4930   S
   33.6786  -40.3293   -3.4888   O
  -13.4616   42.4893   27.8673   O
    9.2994  -11.5071   46.9640   C
   37.2373   10.7849  -46.0488   S
   28.9690  -41.8964   -4.4462   N
   48.1964  -16.4900   36.4624   O
M  END
$$$$
