Generated Ligand
Programmatically generated
Comment line
100  0  0  0  0  0            999 V2000
  -15.4283   31.9479   -9.2108   N
  -32.0410    7.7413  -34.2429   N
  -16.9912   19.3268    1.3087   O
    6.7167  -13.7674  -12.5187   H
   41.8840   40.6310  -29.8367   C
  -19.5662   26.2212   23.8107   H
   -9.4847   -8.3084   35.6048   O
   20.1727  -45.3297   38.1696   C
  -42.5455    5.2111   -6.1746   C
  -26.3260    6.7444  -39.4556   O
   29.5927   41.5852   25.6868   C
   -2.8085    6.2176    3.6029   H
   13.4639   44.1650   -2.0108   O
   -9.3302   46.6040  -16.9031   O
    6.3929  -48.5734    8.4133   S
   -3.8996    7.6754   43.3268   C
  -42.3861   40.5428   -7.2986   H
   24.8378  -49.0240  -31.2835   N
   -1.2304   23.7874   21.9884   C
   27.4489   -9.1304  -24.0345   C
  -32.4192  -37.1167   -9.3993   H
   22.5933   33.4668   13.7279   N
  -19.5810  -48.8647   23.6015   H
   -5.1931   -7.7644   18.7194   S
   34.2149   41.2253   13.7898   N
   -3.3912  -11.4580   29.8165   O
  -49.8757   46.4145   46.4620   N
   14.0397  -30.4242  -23.1932   N
   29.5672   36.1050  -13.7228   C
    0.9894   13.8497   47.7585   S
   41.6724   -5.6904  -35.7168   S
   28.1267  -31.2227   48.7500   S
    5.2127   34.9971  -14.4019   H
   19.0866   11.6236   -9.9869   N
   26.2011    1.9319   -3.5578   O
  -44.6217    6.7450  -49.5033   H
   18.3502  -33.5407  -41.7383   C
   35.4729   11.1733   -0.7638   C
  -10.5630  -26.1839   12.3024   C
  -40.6447   29.1301   38.8987   S
  -39.0153   15.5112   14.7660   O
  -28.0770   18.2227   -2.8884   N
   41.4467  -35.0286   11.3636   N
   12.8361   48.0273   24.1105   C
  -21.9197  -14.8801    9.3210   C
   23.5883   -7.4975  -44.3334   H
   -3.5715   -7.9558   46.0862   C
  -14.0765  -12.9193  -30.8501   N
   10.1402    0.6177   28.0768   H
  -44.3513   30.4370  -33.1028   H
   14.6774  -13.2489   19.9103   H
    4.3682   25.3059  -29.4957   S
   16.1953   -1.2095  -38.0222   O
  -46.7533  -40.9190   26.7422   S
  -19.7886   13.8189   -4.8497   S
   23.5300   16.9261   -9.7305   H
   42.4638   -7.0690  -18.6892   N
   27.9916    8.2408  -37.8879   C
  -40.2162   25.6493   25.4088   O
  -38.0759   34.8712   15.0112   O
   36.7500  -39.6099  -42.5977   S
   26.8070  -10.3636   -4.9449   S
  -19.7710  -43.6981  -20.0770   O
   34.6890   -9.7734   11.9339   S
    0.4282  -37.8670   -7.8909   C
   46.3598  -34.6285   44.1551   O
   31.7770  -44.9195  -18.7316   N
  -14.4903   15.0337  -37.1352   N
   17.4226   33.5436   21.0742   H
    1.2556    5.8280    1.3106   S
   45.4557  -15.9702   39.9243   S
   28.4701   25.1895  -45.5585   N
  -31.8929    2.4054   13.5062   H
   -2.9117  -25.3025    9.7301   O
   17.3066  -44.3996  -26.7979   O
   32.1245   25.5438  -22.9507   H
   -6.8931    7.6324   44.0805   S
   33.4068   11.8688  -34.7222   N
   15.0804  -32.8411  -24.0260   C
  -22.9292   24.8182  -29.9131   C
  -47.7391  -30.9376  -22.2957   S
    2.5656  -21.1243  -41.8647   O
  -40.0755    4.5959  -32.4671   S
  -29.2170  -16.6432  -23.3888   O
    7.6668   23.9476  -10.4857   H
  -18.4095   10.5473   28.3497   N
  -40.4684  -32.4867   -7.3260   N
   -7.5554   47.8925   -1.0950   N
  -25.9641   14.7100   34.8641   N
  -13.5108  -27.4309   19.3979   S
    7.5389   11.5646  -31.8549   C
  -30.3785  -21.1494    7.6789   N
   28.6790  -35.2637  -38.4417   H
   27.6727   41.9761   15.5985   S
   34.5553   40.6111  -32.2649   S
  -25.4582  -39.3617  -22.9547   S
  -16.5846   20.2430  -29.2913   O
  -41.5945   45.5514  -28.2849   H
  -37.0488   23.3793  -36.1480   S
  -24.1735  -34.1364   26.7403   O
M  END
$$$$
