Generated Ligand
Programmatically generated
Comment line
100  0  0  0  0  0            999 V2000
  -43.7758  -15.7693  -34.8188   S
   35.3106   35.4834  -49.5668   O
   11.9667   11.4472    5.3259   O
   43.2216    1.3678  -12.6709   S
  -13.0829   -0.2269   18.6533   C
   34.8975  -37.0181   19.1242   C
  -39.5647   -1.1299   36.1742   O
   30.1521  -40.6713   -8.8800   N
  -17.4804    1.8233   16.8467   H
   -0.9466  -16.1932   -8.0394   O
   22.9576  -30.4896   24.9479   N
   19.3146   -2.3630    8.5572   H
  -38.8877   22.4419  -18.3668   H
  -46.7277  -14.0123   27.8138   N
   20.6154  -39.6022  -29.8527   O
  -41.8407  -39.5726   -4.0718   S
  -31.9696  -37.7779   37.2532   C
   16.0547  -37.5261   -4.3846   S
  -41.2128   46.9673   -8.6970   N
  -21.8908   18.2715   39.4952   O
   17.3858  -15.5016   38.7141   H
   37.1038  -48.7548   32.3276   S
   -9.0964  -28.9595   38.1267   H
  -37.6481   24.6588  -21.4961   O
   30.8420   -7.8329  -43.2327   S
   34.4541   46.9845  -18.0520   N
   35.0539   29.2065   24.5361   O
   47.8236  -28.6021  -14.4549   S
  -19.2295   40.7388  -34.7115   H
   11.0130  -35.7721   47.6745   N
   26.5794   18.2897   29.3199   N
    1.2810  -21.6570  -46.5671   C
   -0.2140   47.4561  -36.4919   S
   -5.3748  -12.2582   -1.5088   H
  -37.5429  -25.4463  -14.4361   S
  -17.8507   42.6887   -4.0431   S
   -7.0070   15.5150    7.8319   O
   11.0238    4.2181   16.6623   H
   -1.2147   47.3383   35.5863   S
  -40.6620    4.4100   18.7727   O
   32.6932  -34.4264   15.1438   O
  -29.8018   -8.4781  -28.3529   S
  -10.7830   26.7158   27.9791   C
   43.6090  -48.1201   12.6587   O
  -41.0465   30.2997   -6.4033   S
   -1.4281  -27.3931    4.0539   S
    8.2180   43.0371    1.4261   S
  -19.0550   14.5614   14.2116   N
    1.4353  -47.6859  -10.1164   C
   16.0282  -46.4842  -34.1792   O
   34.3361   36.6317   20.5741   H
  -48.2016  -27.7916   -1.3975   H
   36.7840   -1.6729   44.1299   N
  -49.3636   27.7225  -16.8770   N
   19.8683   43.9065  -13.9750   O
  -18.6470  -14.4589    8.1123   H
   28.1784   30.7317  -15.2986   C
  -16.1374   14.5549  -35.9860   S
   37.6245  -25.8160  -22.1905   C
  -29.7363    9.0398  -20.5982   S
  -33.7347    4.7303    2.7581   C
   -2.0829   20.3029   18.7100   H
  -23.8413    8.6075  -38.5803   O
   33.1903  -19.5695   26.8929   N
   26.2538   21.4528   17.8283   N
  -36.8443   23.0332   25.4125   O
  -23.8865   40.9088   43.1825   S
   -0.2219   21.0972  -28.5452   N
   34.4921  -33.2912   -7.1949   N
   -9.9684   29.4496   -8.7689   H
   -5.0702   27.0615   29.8349   S
  -18.0343  -18.6264   33.0503   C
   36.4329  -19.8088  -23.3476   O
    7.6647  -41.7758  -46.1099   S
  -32.4729   44.7064  -28.8614   H
  -21.6708   38.5656  -25.7287   S
  -46.7923  -27.5189   41.6560   O
   24.0227   48.4112  -22.3750   N
    8.9834    6.7298   46.6277   O
  -36.1017  -10.5675   -2.1869   S
   27.3242  -12.6337  -36.9817   C
  -21.3691   45.2731   24.9539   H
   -1.4482  -48.4642    5.4430   O
  -34.4598   25.1057  -45.8120   O
  -46.8294  -10.7827  -14.5757   C
  -17.0981   33.7666  -46.1906   O
   23.3503   45.5675   30.1849   N
   -5.2967   21.9016  -28.9302   N
   25.6485    2.2047   47.6049   S
   25.8708  -27.5335   24.9830   N
  -33.7811   24.9896  -40.5125   C
   49.4061   44.5699   10.8201   S
  -49.0079  -18.9693   27.5264   S
  -40.4627   21.2769  -26.8148   O
   -4.1625   45.0447   24.9110   H
   39.9345   30.9376    0.2948   C
   16.8054   45.6176   34.4537   H
    6.4916  -27.2823    2.8181   S
  -11.7162   20.5638   -8.8946   S
  -47.4801   -2.2969   33.9461   O
M  END
$$$$
