Generated Ligand
Programmatically generated
Comment line
100  0  0  0  0  0            999 V2000
  -26.7668    8.5646   14.4431   N
   26.6772   -1.1729  -19.4525   C
  -42.2144    8.3280  -27.9389   S
  -14.8590  -38.1867  -39.8125   N
  -23.0738  -39.1079  -10.5064   H
   24.0112    0.5353   22.9979   S
  -33.3640  -28.4798   -0.9851   N
   21.9450   40.5121   13.6544   H
  -25.2425  -20.2866   -7.1499   O
   -1.2968   31.6864   28.9439   O
  -19.8241  -33.0643   12.9973   N
  -45.7306  -22.0050  -19.7990   C
  -46.0069  -46.5816  -45.0357   N
    4.0141   28.3746    1.5142   N
   30.8198  -36.1532   15.8810   S
  -45.3204   20.1989  -44.2265   C
  -40.9486  -14.8163   35.4282   H
   -1.7005  -14.5501   49.6519   N
   46.5877   17.9459   -8.4408   H
  -45.4130  -22.4326  -13.4837   H
   47.1954  -44.3424   34.2418   H
  -23.8141  -36.0944   46.5560   S
  -19.9025   -7.4578  -44.7192   H
   -1.0186   42.6188   49.1918   N
   33.0225   44.2638  -13.4518   O
  -29.6017   21.8216   17.3599   H
  -26.0204  -30.5179  -49.2302   N
   35.9867  -40.1596   41.5929   O
   22.1054  -41.5891  -36.6979   N
  -36.4832   -1.5278    4.8478   O
   46.7160   26.9052   -8.1694   C
  -24.9367  -14.0515  -43.4730   H
   10.7441  -22.0825  -46.9009   N
   11.3392   34.3733  -13.9959   C
   40.0787    9.9696  -27.5350   C
   10.8721  -33.1013   44.5314   N
  -33.5315   35.8039  -24.8746   O
    7.7319   46.4050  -46.3534   H
  -25.5133  -39.2788  -29.5286   O
  -36.9536    4.3819   -6.3679   N
  -45.2471   19.6786   15.2821   O
   31.5728   20.5982  -29.8288   N
   24.8059  -39.3428  -31.5946   S
    4.3113   49.2536  -16.7290   S
    4.3435   13.9798   39.3778   H
    5.7506   45.8371   39.6519   S
   25.1511  -18.1122  -29.5920   S
   -7.9918   -5.8317  -37.3244   N
  -36.7579  -42.5676  -44.8430   N
    2.7049  -11.9029   45.0886   H
   18.4860   19.3841  -33.2797   O
  -36.9524    9.6131   48.9149   N
  -38.3654  -49.4260  -25.8282   N
    5.2800   12.1806  -20.0389   S
  -35.1608   -5.2435  -42.2882   H
   29.7873   44.5288  -17.7522   N
  -15.0382  -30.8992  -37.3430   C
   17.2853   15.4836    1.9292   C
   -0.7570    2.9303   47.7050   C
   -7.4064  -17.5568  -47.3569   N
   -7.2874    7.7691   40.8022   C
    0.8820   11.5883  -37.4016   C
   -0.9608  -36.5423  -44.8397   O
   41.9993  -40.1400   -1.7857   S
   22.7232  -27.1577   16.1644   N
    6.1971   17.1635   21.1303   O
  -35.5271  -21.3767   40.4003   S
    5.0580   30.3602   21.0688   H
  -11.5868  -29.1047   -4.1601   H
  -42.2841  -15.9144  -37.0869   S
   17.4335   24.2581   35.9189   S
   40.8816  -22.8527   17.9060   H
   42.9915   13.8384   36.6571   H
  -30.5762   -4.5940   25.0158   C
  -33.5306  -21.8661   26.8468   O
   45.1325  -34.2155   -7.3170   S
  -13.0012   12.5318   32.0920   S
   -5.4049   47.0749  -16.4221   N
  -46.4014   -7.3873  -48.6824   O
  -43.0277   10.8028    3.9497   H
   24.1030  -22.9562   27.8839   S
   18.2992   -6.9711    2.8014   S
   22.3886  -36.0500  -11.8797   N
   39.2197   49.1919   48.3772   C
   24.4215    3.8978  -44.1223   N
   12.3927  -15.1477  -34.0881   N
   47.4934   -0.6350  -16.5618   N
   25.5002   45.0189  -29.7556   C
    1.3531   21.2483   -5.5732   H
    6.1933   17.8956   47.3828   N
    6.5698   42.6865   16.0998   O
   18.4406  -29.6925   13.2292   C
    7.5856    8.8723  -40.6743   C
   25.4011   31.9295  -21.2104   O
   17.8976   -9.8189  -18.8377   H
  -23.7628  -20.1206   42.8520   O
  -20.7314  -47.3278    2.9034   N
   43.8828  -32.0216   20.9418   H
   37.7221   27.2109   33.1574   H
   43.8271  -27.5803   43.6712   H
M  END
$$$$
