Generated Ligand
Programmatically generated
Comment line
100  0  0  0  0  0            999 V2000
   10.2197  -47.7910    5.1538   O
   31.7530   43.1618    0.2305   H
  -33.3236   18.2524  -26.7246   O
  -49.4929  -26.8615  -44.3484   N
  -15.0250   48.2103  -39.8874   O
  -12.3999   -2.5916  -41.1951   C
   33.5592   -1.2361   47.9333   H
  -14.3165   -6.1785  -19.0711   H
  -17.8018   13.4310   29.8023   S
   21.0732  -39.9193   20.9974   N
    5.7956  -25.5864  -23.0971   N
  -21.0681   49.4182  -27.6736   C
   32.7312  -16.8820  -23.3016   N
  -49.8179   36.7523  -37.0953   S
  -48.1722  -45.5177   13.1117   H
  -15.6456  -24.3186  -27.5104   O
    5.1380   34.8726   31.7156   N
    7.7793  -37.4663   23.9045   C
  -40.5994   -8.1532  -29.8702   O
   14.5608  -49.1863  -41.0783   S
  -17.9626   43.0406  -24.8386   N
  -41.7050  -49.3492  -33.5872   C
  -47.4653   -0.5056  -36.3885   N
  -15.1009    5.9057  -12.2975   C
   -1.1813  -27.0592  -44.2511   H
   -3.8772  -36.1277  -17.8784   N
  -42.0140    1.7796   25.1991   C
  -47.6519  -35.4626  -46.8792   C
  -26.8112   29.9773   39.7597   S
  -34.7235   18.0050    2.9808   S
   -9.7350   45.0650  -32.6570   O
  -37.2744   -0.9742  -42.1760   H
   38.8598    2.1804  -49.4575   H
    1.6918   39.9851    7.7207   N
  -22.4192    9.6480    9.0078   N
    4.9211  -11.0646  -18.0018   S
   -5.3480   -6.4417   28.9434   N
   38.4163    1.4174  -29.7511   O
   17.9947  -27.3039  -21.8434   N
  -49.4602  -38.3883   48.6337   C
   -4.2362   21.4767   10.5517   C
  -35.3342   10.4114   -9.6039   N
  -20.7611  -28.5970  -13.8780   H
   49.9048  -45.3415   44.1973   C
   29.7904  -49.8130   32.6005   S
   25.8834   25.6783    5.6885   S
   16.7457  -27.4225   21.0904   N
  -25.1466   32.5861  -19.8935   C
    0.2280    5.4354  -32.5130   O
   16.0503  -45.3937   48.5798   O
  -25.0702   25.6179   -5.0366   S
   17.9557   47.7199   18.5786   N
  -42.1660   13.9372  -16.5833   S
   29.7039  -43.2954  -49.2319   N
   20.6442   34.6361  -29.1848   N
   30.1080    9.4977   31.6777   O
   -6.9082   27.6977  -34.7417   O
   42.5486  -41.1290  -39.6272   O
   31.3474    7.8823  -20.0276   N
   -3.3183   38.6938  -33.5421   C
   30.5397  -11.2281   11.4106   N
  -31.7825   31.6791   48.5244   O
  -23.8385   44.7974    6.8790   N
    1.2861   20.3605  -33.6964   N
   15.4757  -12.3166  -29.7616   N
   20.2033   25.5276   11.5387   H
   23.4582  -45.8163  -29.7211   C
  -35.9921    5.1566   47.1578   C
  -44.9084  -27.9032   -6.5051   C
   45.2117   29.2284   27.6487   S
   37.7018   26.8301    7.3137   O
   29.9971  -38.8910  -40.0555   C
  -42.5963   39.5975   17.9825   C
   14.2914  -24.7950  -17.2417   C
  -36.9628   42.7963   28.8584   N
   -9.3762  -27.7037  -13.6829   O
  -19.9785   15.4002  -31.3283   C
  -49.1830   43.9704    7.2106   O
    5.9983   12.6842   22.6263   O
   24.5985   -5.4109   -9.9931   O
  -24.6707    3.6963  -24.3342   N
    9.6172  -17.2979   49.9211   O
   39.2699   18.1704   44.5382   S
  -13.6856   41.6015  -36.8041   O
   20.3560  -35.1268   -8.1826   O
   25.8718  -29.8785    9.5746   H
   15.9172   23.9929   47.8519   S
    9.0859  -39.2307   39.4286   N
  -27.2980  -23.0716   27.1997   H
   32.2704  -28.7823   13.5806   S
   -6.9876  -18.1573    3.0129   O
   35.6957    8.9029    2.5951   C
   31.6665   46.9608   -2.4873   N
  -17.4901   48.5968   -9.1986   O
   11.2769   36.4693  -14.8120   C
   24.2586  -37.9149  -12.6224   C
  -38.9380  -29.1654  -28.0312   C
  -45.5059   28.8869  -34.2340   S
   14.0223   14.2027   14.2028   N
   38.0894   15.9859   22.6872   N
M  END
$$$$
