Generated Ligand
Programmatically generated
Comment line
100  0  0  0  0  0            999 V2000
   -6.2624  -22.7410   -0.5515   O
   27.7098   -8.1908  -48.4319   N
   23.3279  -34.4073  -36.1126   N
  -29.0261  -48.3620   -8.6663   H
  -31.1764   23.5321    8.7046   O
  -18.2363   45.2987  -41.4117   O
   -8.5219    9.8346   43.8176   N
   34.4365    9.4940   45.0186   H
   13.8820  -33.4503   48.3258   S
   49.9767  -11.7352  -26.3110   O
    8.4519   42.9446  -40.6432   O
    6.5277  -22.6052   48.3618   N
   41.5742  -32.5267  -29.9639   N
  -17.1883   26.6107   41.8640   S
   43.9250   35.4512   -4.7913   S
   41.3116   45.5188  -46.5706   N
   11.3404  -21.2819   47.0892   C
  -41.8179   21.4948   -0.3743   N
  -48.4570    0.2434   -1.6812   C
   15.5838  -18.0191   46.6881   O
  -25.9720  -11.9254   -6.2257   N
   31.1479  -37.7165  -44.8415   S
  -27.5603  -18.2523   31.5923   S
    1.9915   18.8868   -3.8601   H
   32.2365  -17.9780   33.8989   C
   43.3576  -43.4138   25.4108   N
   -7.0896    3.2601   11.0601   O
   34.1699   -3.0153    5.2219   S
  -20.1846  -40.8383   35.1621   C
    1.7525   -3.1706   35.3227   C
   49.3362   31.2153  -31.7036   O
  -33.2043  -49.6735  -34.3086   S
    5.2898   22.6048  -20.9900   O
    8.3865  -30.2187  -33.9143   C
   23.5055   25.2024   17.8300   S
   49.5731  -30.3734   19.3784   H
  -15.5224   28.1689   39.3014   H
   43.2026    5.1983  -38.5595   O
   13.9342   47.7657  -25.5522   C
   33.3807  -31.7719  -40.1937   O
   48.4978    3.7129   48.7116   C
   46.1160   38.7485  -33.3457   C
  -18.6864  -49.1771  -20.5328   C
   14.1072  -30.6163   15.1795   C
  -41.5617   43.4034  -14.9418   O
  -16.2540   13.7561  -20.4768   H
  -32.9426   28.7898   -6.1282   C
  -12.1554   35.7373  -17.1214   O
   40.8582   43.1311   30.1110   N
  -32.7578  -19.2153   24.6702   S
    0.3560   11.8747   49.5240   N
    8.3348   41.0243   12.8982   H
   18.6705    5.6391   29.0252   C
    3.4237    0.3199    6.7223   H
   -4.3822  -22.0018   15.2287   O
  -19.3800   29.3394   -7.3349   S
  -46.7874  -48.4797   11.4744   O
   31.3473  -19.4230   35.7230   C
  -26.0133    4.5866  -14.7343   H
   27.9120   41.2876  -43.0566   O
  -32.1486   10.8063  -14.0788   C
   -3.5402  -42.7845  -16.9225   N
  -37.8210  -12.8536   10.9176   H
  -30.7540  -44.9976   39.4298   H
   -6.8791   -7.4016  -20.8345   O
  -24.3333  -22.4511  -48.5738   N
   36.4069  -19.8534   -3.6701   N
   37.1818   19.7748  -24.6923   C
    4.7563  -23.7161   -5.5291   H
  -28.2840   40.2854  -40.6382   N
  -28.9475   12.1666  -48.8034   H
  -18.8536  -19.3915   15.2899   H
  -38.7234  -25.3908   11.9151   O
  -15.8804    0.6554  -24.6741   N
  -15.1652  -25.0906  -25.9168   O
    4.4027   48.7974   16.3980   C
    8.9454   27.5595   20.9199   H
   38.2904  -35.1011   18.3847   C
    2.9169  -24.0250    7.6018   H
  -22.6186  -37.6214  -24.0709   N
   -6.8483    2.4797  -49.7400   C
   46.9281  -33.6488  -46.5037   N
  -45.7512   24.9034  -10.3497   H
   18.6258  -17.2659   12.4382   N
  -25.5094  -24.8404    6.9391   C
    9.1640   -8.5834    5.9005   H
  -42.2644  -23.9124    7.7276   N
    5.2077   35.0542   37.0305   O
   31.3564    9.2342   47.9199   O
  -49.8876  -40.4345   13.1865   O
    3.3055    3.5517   28.9282   C
    6.5885    8.3869   39.0353   N
  -34.6899  -21.0495  -10.6573   C
  -34.8858  -21.8846  -29.5323   C
  -23.5590   31.4215  -36.9942   S
    1.8850   29.1913    2.6805   S
  -49.9559  -17.9093   32.0518   C
    2.8835   -5.3174   49.0867   H
  -32.5875    4.8294  -34.8207   S
  -47.3245   45.6718   25.9581   N
M  END
$$$$
