Generated Ligand
Programmatically generated
Comment line
100  0  0  0  0  0            999 V2000
    0.4514  -41.7658  -36.1943   S
   12.4745    4.8670    4.9578   O
  -10.0665  -20.5780  -16.6342   O
   27.4803   29.4262   46.1850   N
   20.4870   41.0264   -3.4787   H
  -39.5735  -18.8900   22.9372   N
  -18.4864   27.1310    9.9172   N
  -47.2949   12.5286  -39.9255   C
   42.6523    4.3933  -41.4594   H
   16.1689   32.7810   41.6094   O
  -40.5908   17.8172   41.6613   H
   40.9502  -48.0821   36.5331   H
  -40.8959   31.6865  -12.7362   H
   20.4335   13.3440  -36.3918   C
   24.7886    6.9236  -26.2913   S
   -7.7489   14.3475    1.7713   C
   14.9709   28.3520  -30.6522   O
  -20.1073  -29.5105  -17.0411   H
  -41.7567  -46.3512   19.5420   O
   41.3018  -32.2851   44.3692   S
  -45.0230    0.7431    6.9854   H
  -12.3047  -12.7619  -29.4582   S
  -34.3200   40.0523   -4.3332   N
   47.8697  -26.7782  -20.7028   O
  -47.7527   32.0367   16.4368   O
   38.6472  -46.9073   -4.6665   N
  -45.2946  -33.6880    7.9708   N
  -36.9259  -49.5303  -22.0493   H
  -44.9448   21.3925  -44.3254   C
   15.4221   49.1362   43.6051   H
   48.0312  -23.3499   41.6538   O
   36.6625  -11.7163   19.4150   H
  -30.4833  -24.1112   16.6962   H
   15.9977   38.8512  -46.5219   N
   36.3068  -17.5747   13.5094   O
  -38.8287   11.7522  -17.7424   S
   -7.2437  -35.7068   30.0865   N
  -39.9532   23.2784   19.3556   H
  -44.0690  -49.2003   -7.8281   H
  -23.1875  -17.2696   -8.3928   H
   21.4675  -21.3204  -49.3088   S
  -43.7431    8.1703  -28.3493   O
   46.6489   -3.0842   26.6005   O
  -42.7322   24.4363   15.1878   N
   30.6408  -13.2071   41.1237   H
   -9.4242  -46.0958   24.4979   H
    9.7532    5.0232   -5.1536   C
   29.5001   -8.4561   39.2301   C
    3.1922   -0.6674   33.9221   O
   40.1052  -30.9906  -25.5379   S
  -13.4844   17.9721  -48.7582   S
   21.9105  -26.9333   40.3838   H
  -14.4617   42.1033  -34.3493   S
   14.3092   20.3241  -36.1353   S
  -40.3193  -16.6744  -29.4277   O
  -43.3050  -46.9884  -46.4966   N
  -18.7420  -28.1626   30.9123   C
   14.9932   -7.9191  -34.2946   N
   28.9575  -27.4295   -5.5153   C
   -9.4334  -43.0582   -0.5786   H
   26.4514   42.5023   19.6531   N
  -21.9737  -14.4510  -34.9713   N
   20.3796   48.6306  -42.4567   S
   30.4359   30.3143   14.7968   S
   -3.6525   47.1944   20.6796   S
    6.4338  -21.2272   27.2609   O
   37.1176  -12.4240    6.9948   N
   21.5034  -23.5993  -23.4676   H
   -9.8359  -45.1577  -39.0671   C
   13.6758   -1.1648  -19.1351   C
  -37.8689   36.2528  -43.6919   S
   22.9675    5.9921  -12.8416   H
  -27.8963   30.6109   18.4955   S
  -43.6533   17.1904   47.6545   H
  -11.5871  -25.5707   16.2391   S
   46.8644   -9.4132  -14.7808   C
   16.0854   33.0107  -40.5606   N
   14.8998   21.7548  -14.6590   C
  -21.3684  -28.7722  -14.8305   C
  -33.2260  -38.4096  -39.5709   N
   -5.3808  -16.2481    9.9098   S
   23.3398  -37.2046  -28.0457   C
  -45.1533  -32.0970  -31.0820   O
   23.5288  -19.2251  -33.7247   N
   42.2387   37.4895  -11.7708   H
  -15.4384  -13.1706  -31.8600   S
   13.3690  -46.6291  -13.7754   O
  -23.6668   -3.4981   20.5136   O
    4.3701   -9.6111  -12.2461   C
   32.6594    1.6205  -43.1827   C
   30.0809   33.8169    7.6296   O
   19.0001  -30.5360   26.4844   N
  -13.8667  -28.6996   37.4815   H
  -28.7046  -49.6145  -43.4571   H
  -45.8956  -46.4359   45.5234   N
   27.0147  -45.2513  -41.6553   S
    5.5974  -15.5598  -44.1910   H
   27.2266  -41.9605   20.3940   C
   -9.5018  -27.7113  -19.7648   N
   13.1202    7.6304  -18.4363   O
M  END
$$$$
