Generated Ligand
Programmatically generated
Comment line
100  0  0  0  0  0            999 V2000
  -46.0300   28.6434  -18.1975   O
   16.9047   43.4461   44.4370   C
   43.0603   29.6646  -47.9441   O
  -25.7022   20.8923  -31.8317   N
   14.1934  -15.3885   36.0448   H
  -43.7618  -43.8700  -47.0108   C
   35.5859   27.4438  -41.2623   N
   17.8808   35.2983   36.1534   C
  -18.7838   17.9656  -35.6276   N
   10.8392   28.7953   19.7415   H
   26.3367    6.3568   38.7077   C
   32.7110  -48.7712  -33.2219   H
  -20.9010    6.0091  -34.7474   H
    3.7324  -20.4253   12.8085   H
  -17.5597   30.4463  -28.7973   S
   40.2759  -41.0240   30.8338   O
   -8.1245   -7.6429   17.1792   S
   10.4821   49.5048   -7.9279   C
   -6.6481  -23.9191    8.0250   O
  -24.0030  -38.9757   15.5259   C
   33.4554  -14.9536  -45.5379   C
  -30.9642   35.4029   36.0774   C
    2.8974    9.3052   15.2936   C
   39.7761   17.9936   37.3735   O
   26.4047    9.0616   -6.8217   S
    7.3564  -28.5045   -6.1090   C
   33.7838    1.7602  -39.5259   C
   -4.4684    5.6694   26.0763   H
  -17.9723   -1.8847   12.5066   O
   15.6249   -7.2772  -39.3008   N
   -0.8273  -15.1135  -12.2880   S
   46.8020  -21.0824   -8.2831   S
  -44.6386   -0.1011  -10.5523   O
  -22.1049  -21.6074  -21.2670   C
   11.1562   18.2800  -26.3397   O
    1.8901    3.6391   -9.0473   N
   -1.6257  -48.4810   48.0417   C
  -32.4158   -6.7426   24.3196   C
  -30.8391   30.5385   43.4194   H
  -35.2535  -15.8028   43.5975   H
  -25.5502  -48.8042  -26.5249   O
   12.5387  -26.0389   38.9428   H
  -44.3882  -41.6800  -45.8464   O
  -12.1661   40.8747   33.6981   N
   28.0763  -21.9922  -26.2692   N
   -3.0915   46.6411   29.4617   C
    8.4634  -14.7402  -42.0019   O
  -36.6928   13.2672  -39.9375   O
  -28.2996   33.9916   35.4454   C
   23.4600  -45.9965   -9.7660   O
   30.3050   14.7721    2.4237   S
  -39.9101  -15.4816  -21.7935   O
   24.1361   40.2312   -5.7311   H
   -4.0020   33.5902   33.8322   C
   -6.5196  -18.1888  -46.1907   H
   12.4600   25.4904   49.3629   O
    8.5960  -24.5720   -3.0240   S
  -33.6322   42.3009   -1.2283   O
  -20.6795   21.9586   10.2412   C
   -2.0397  -15.3688   31.9758   N
   23.4669  -31.7162    6.4038   H
   16.1774  -28.7627   15.8310   N
   21.1818  -18.9802  -28.5737   S
  -47.8667   19.2044   25.6585   O
    5.3726  -23.3536   36.2107   N
   13.2435  -22.9299   40.5424   H
    0.1352   29.3546   35.7195   O
  -26.7967   -2.8028   -3.8811   S
  -48.4935   34.3311   38.3545   N
   16.0723  -44.3688    1.2398   H
    0.2799  -46.2273    8.1930   N
  -40.8952   -5.0087    6.1966   N
  -27.8325  -23.5492  -25.8051   H
   44.7531  -32.5809  -31.5555   H
  -47.2634    8.3739   45.6707   N
  -36.0334   44.3810   42.6078   N
   49.5467   -1.4143   15.5488   O
    3.9902   -7.1809   -2.2513   N
    7.9661   -9.7710  -11.7066   H
   38.0587  -34.6435   36.2593   C
   20.2212    0.3497  -27.7542   N
    6.9299   44.3263  -49.9948   N
   33.1700  -45.8228   10.8918   N
   41.6878   32.8213   26.9087   N
   42.0528   17.6662  -15.6518   H
   24.9077  -41.8668   -9.0858   H
   12.9292  -46.3482   18.9376   C
  -17.6706   40.1655  -27.5617   C
  -42.1891   -7.6575   20.0433   O
   27.5941  -45.3403   18.5382   N
  -44.4351   -9.5879  -32.6738   H
  -17.3678   39.9611   16.0459   O
   43.9508  -16.5373   49.0129   S
  -10.5324   20.6544   29.6878   N
   49.6272  -42.4886  -31.8440   H
   49.0717  -23.6155   -1.4055   H
  -35.2868   14.1821   19.6393   N
   45.3938   -2.8002   14.3855   C
  -42.7910   28.5261   25.8539   N
   49.4360   39.2751  -34.1419   O
M  END
$$$$
