Generated Ligand
Programmatically generated
Comment line
100  0  0  0  0  0            999 V2000
   13.1825    7.2270   -7.9127   N
   33.1600  -23.3790  -45.4814   C
  -18.2388   37.1566  -25.8668   C
  -12.5542   30.3980  -23.2999   N
  -28.6116   48.1821  -23.1018   C
  -38.1298  -41.4476  -30.1999   H
   35.3117   24.5386    2.1695   C
  -33.8162  -23.1750  -44.2716   S
  -25.8493    7.4303   -3.3099   N
   34.2528   42.5499   44.6855   C
   33.0083  -34.8810    0.3516   C
   11.0685   28.7310   49.7935   O
  -28.4301    5.9800  -39.6187   H
   26.2697  -47.6770   10.4842   O
  -30.6002  -43.6514   -8.9126   N
   23.6311   37.9818  -14.8176   H
   12.6237   40.5772   49.2443   H
  -11.3463   -5.7145   -8.6580   S
  -23.2478   25.7289   19.6687   N
   29.2352   27.3025   31.5145   S
  -12.2365    8.7961  -22.4181   H
   -5.7445  -28.3234  -19.4664   O
  -16.4256   20.6420   16.8552   H
   49.3101  -46.1395  -49.7466   H
   11.6585   16.8906   45.3017   N
   -3.5893  -37.7406   48.3078   C
  -38.9575  -24.6065   44.2460   O
   13.4788  -24.3812    7.6835   N
   48.2305  -32.9978   13.0381   S
  -17.0583  -43.9733  -22.7514   O
   18.8112    5.3955   27.8293   O
    3.9201   44.9845  -19.2591   C
   32.9273   23.5140    2.9239   S
  -48.6983   11.0313   19.6143   H
  -34.9400  -16.1033   30.5786   O
  -45.5980   -5.6601   47.3170   N
  -10.9680   -5.5223  -41.5920   C
    3.3311  -10.9615   -1.1192   H
    9.0866   26.5671  -44.7561   O
   49.1504   48.4711   41.1538   H
  -36.1306  -26.4331   -5.0131   H
  -20.6535   -6.7740  -38.6434   N
  -37.9367  -19.5407   31.8795   N
    9.6444   33.1155  -38.6019   N
   10.4057  -28.0550   43.3751   N
    7.4016  -14.7529   48.2865   C
   18.1799   30.9214   -8.1008   N
  -33.0828  -27.1661   -8.2287   N
  -39.8017   47.1014   42.2992   H
   -3.3372  -26.9095  -25.8711   C
  -45.5762    5.9078   37.8956   N
  -47.2054  -30.3589   41.7772   C
  -14.8506  -24.3320   12.4255   H
  -41.5056   34.8577  -36.1428   N
   18.2754  -44.7915    2.8525   N
   34.4692   31.1556   -6.4711   O
   26.5669   29.7383  -24.1279   N
   49.5766  -49.5255    2.3182   N
   20.5273   40.5059  -43.5776   O
  -34.9596   39.4392   20.2404   C
    9.1429  -45.0242  -19.7233   N
   45.7219   20.2748  -17.9134   C
   -6.2956  -35.1207   49.7185   H
    1.8631  -19.6980  -45.3672   S
  -12.1597  -18.9211  -25.6860   H
    7.4796   45.6726   42.6450   O
  -42.2820  -29.1980   -0.2216   N
  -26.4832   15.4651   -9.0769   O
  -43.4497  -18.9743   -8.8387   N
   14.5206  -33.8484   24.1833   S
  -42.2675  -33.1540   12.8684   S
  -42.4471   37.3267  -44.8682   C
  -39.1548   27.9096   27.9140   O
  -23.1989  -19.3689  -41.3142   C
  -13.9357    3.2936  -44.3780   H
  -12.1846   19.3295  -40.5334   H
  -40.8231  -43.2733  -43.6588   C
   35.7987    8.0137  -18.6344   N
  -35.4388    2.7290   10.5530   C
  -12.8149  -10.3218   48.5919   H
   48.4041  -15.6039  -34.6315   N
   21.8173  -12.9594   -9.4515   S
    0.7900  -45.0769  -27.9388   N
   -9.4467   40.4893   15.9593   C
  -42.4138  -28.2332   39.6009   O
  -16.7539   42.9845   24.6172   O
   17.3481   -9.5299  -36.3561   O
   19.8266   32.6623   10.1434   N
  -48.2725   34.1772  -21.6263   S
   11.9307  -39.7583  -20.3567   C
    9.6732   42.5258   27.8712   O
   49.6263  -10.8639    9.8818   C
  -43.2422   36.6036  -10.1263   C
   -2.9161   -4.8972   -3.4819   H
  -10.6888   49.3145  -22.6896   C
  -34.6350  -35.7031    6.1670   N
   13.0707   30.5936  -30.6965   S
  -23.9161   -8.5987   18.8608   N
   17.1881   13.1064  -28.4728   C
   48.3966   28.5609   16.8685   O
M  END
$$$$
