Generated Ligand
Programmatically generated
Comment line
100  0  0  0  0  0            999 V2000
   49.2070  -45.2467   -2.3046   O
   -6.6693   -1.6326   33.7875   O
   26.3914   23.0268   15.6475   N
   -6.2448   -1.3098  -37.8733   H
  -49.7558   48.4895   28.4530   C
  -39.4316   -9.1273   46.0509   H
  -24.5887   27.2147  -25.4552   O
    2.0521    9.4575  -22.1236   S
  -21.9921   -1.1958  -21.7572   H
  -13.7337   34.5741  -29.7248   S
   47.2382  -43.5177   -4.7425   H
   12.7756   10.0235  -36.8245   N
   47.2367  -29.8550   33.0378   H
   31.6011   33.8236  -25.4684   N
   13.6740   30.8141   13.6008   S
    4.7355  -34.5882  -26.7949   C
   12.6085   22.5529    8.3738   S
    6.3603  -14.1819   12.4383   N
  -36.1142   43.2337  -19.4988   O
   24.1735  -31.5069   29.8320   N
  -22.6805  -49.3021   20.3363   S
  -13.7279  -21.6590    7.1532   O
   21.6022  -37.3484  -32.9427   H
   13.2498  -32.7298   -0.3444   C
    6.5061  -44.6863  -46.7635   C
   34.3164   -7.2912  -11.6254   O
    2.9055    8.1903   11.9949   C
   10.6748  -18.6846   11.9509   O
  -29.9359  -22.4825   46.8528   O
   11.9571    3.2948  -12.4667   H
    0.4349   23.0329   46.5891   O
   16.8433   36.0638   39.3410   N
  -15.5956   11.7116  -16.1175   O
  -26.3339  -42.6228    7.4615   S
   19.4021    5.4313  -12.9279   O
   49.2326  -28.8048  -16.2548   H
    8.4093   37.0280    5.6395   N
  -38.0686   15.0139   14.0796   N
  -18.9878  -43.2953  -11.2048   O
  -37.5232   -8.1144  -37.3107   S
   28.4639  -21.5754  -22.5371   S
   -7.2812  -31.1858  -46.3563   H
  -26.7811  -46.9487  -16.4302   C
   -9.4975   47.2749  -20.3820   O
   13.2444  -45.1503  -33.3802   O
    7.0953   11.9241   19.7152   O
  -42.3632   32.5889  -38.6689   O
   -3.3902  -20.7697  -41.3917   N
   18.3447   13.6011    6.1191   C
   42.1474   32.9541   -0.8929   S
  -28.2055   35.2757   43.7800   O
    8.5960  -40.5814  -48.8157   S
  -17.5861    3.3219   -4.5214   H
  -14.2014  -14.0795  -44.8293   N
   32.7389   21.0948   48.0299   S
   -9.8052  -30.7910  -42.4997   S
   24.9564   15.7179   47.1569   O
   32.5979  -11.8969   -0.2936   C
   40.5409   11.5066   11.1093   C
  -19.5972  -13.4532   47.6000   O
   26.6236   27.9026   36.6789   C
   -6.6536  -18.6772   18.1081   C
  -38.4128   28.3188  -35.0211   O
    9.4425   47.4431   42.7381   O
   44.5662  -12.2699   38.1028   H
   15.9567  -24.9299  -40.7511   C
   22.5023   27.2303  -43.2259   O
  -20.5390    6.4023   35.7222   O
   -4.2420   46.5298  -26.1847   C
    5.4876   16.9156  -48.4716   O
  -27.0522   43.1697  -40.9765   C
  -36.4738  -35.7378  -43.5622   H
  -14.5816    2.6693   -5.3309   C
   33.4744  -45.1661   44.8762   N
  -15.8546  -18.5877   -2.8800   N
  -29.2736   -1.5644   40.4899   H
  -24.8344    4.6097   15.1010   C
  -49.6776  -17.1620   37.1426   O
   47.1307  -29.3524   46.0288   O
   48.8666  -35.8251   32.1166   C
  -29.3625    8.3947   -9.1286   H
  -14.0638   30.8642  -36.3850   S
  -47.7201   32.7845  -13.8564   N
   -6.5016   48.4395  -38.4505   H
    4.3147   16.5850  -39.4426   O
  -13.9289   29.8463   26.4898   N
   16.6708   -4.0419  -17.1619   O
   42.1136   37.2121  -13.0167   H
  -42.4748  -35.4141   23.6874   H
    0.0545  -37.7414   49.7531   H
  -49.6172  -41.3355   29.3044   N
   40.8556  -16.5361   29.7814   H
  -37.9764    2.0773  -46.0154   O
  -24.4103   11.6153  -30.7676   N
   -1.8115   43.9590    6.8855   O
   -4.5106   28.2010   44.0138   O
  -10.2730   11.0834   31.1263   S
   34.6125   39.6816   39.2474   N
  -27.7500   42.3062  -44.9791   O
  -24.1068  -40.6193  -13.6661   S
M  END
$$$$
