Generated Ligand
Programmatically generated
Comment line
100  0  0  0  0  0            999 V2000
  -23.8254   -3.6354  -13.3646   N
  -19.9978  -48.6748  -30.9480   S
   48.0714   41.5787   44.7128   N
  -25.5903  -24.2672   -6.6993   N
  -41.2118  -47.2914  -43.2882   N
   11.1226  -16.6599   11.6630   S
  -11.0988   48.6634  -14.8568   S
   21.5086  -15.7885   39.7007   C
   10.7529  -21.5899  -49.8299   N
  -16.8787   -2.7614  -18.1922   O
   -6.3164  -15.9531    6.8471   H
  -36.3447  -42.9660    4.1609   S
   -8.8275  -34.8981   36.8054   O
  -18.6253  -25.6904   29.1457   O
  -23.5415   27.9856  -45.5532   C
   13.2285    0.8244  -28.5860   S
   -9.5115    0.0481  -22.5009   N
   -0.4031   49.1434   34.7657   O
   48.1778   -7.8114  -42.4655   S
   15.1506  -49.3153   49.4304   N
   42.2300  -21.6208  -10.4174   N
  -25.6142   49.6710   -6.4871   O
   31.9772  -42.4830   37.3516   C
  -28.7967   27.8249   42.1792   C
  -25.3132   -5.1674   35.8518   N
   -1.6216  -38.0481   -0.7510   C
   16.3894  -42.8023    0.0146   C
   -8.0208  -27.8098   11.3716   O
   -6.1006   25.0949   20.2939   N
   35.8747   30.2052   39.1887   H
   34.7276  -23.9117    6.1293   H
  -29.4920   45.7502  -26.8727   H
   41.6163    8.3204   35.0995   C
  -49.1110   18.4744  -46.7407   S
   17.6722  -17.7732   46.6907   C
    4.4826  -37.8535  -22.4147   O
  -24.9341    3.9184  -34.2477   C
  -35.4208   29.4690   42.9022   C
  -20.5622  -13.9184  -15.3917   C
   32.4964   18.4633  -27.9347   N
  -37.4973  -14.0604  -36.9843   O
   -1.8128   47.8327   -7.3629   C
  -13.0910   45.1834  -13.7583   S
   31.5648  -19.4049  -24.0963   H
   17.6741  -10.2106   44.8128   N
   18.2366  -19.7314   22.8738   H
   24.5841   34.1622  -23.4313   S
   24.0164  -20.1581   23.5627   C
   -7.6049  -18.5152    7.1040   H
   23.3287   25.9363   48.1297   N
   21.2338   28.5719   39.2251   S
  -23.3513   35.1777   -2.9392   S
  -39.3919    1.9358   12.5548   H
  -17.8020   37.7168   -8.8220   N
   11.8340   17.0233  -28.1514   H
  -29.7586   33.7407   47.8217   N
  -47.0032   -0.2337  -38.5624   O
  -37.8598   -4.2632  -49.6498   O
   11.7519  -35.9179  -17.9166   S
   30.0231  -32.9702  -31.4158   S
  -23.5648  -21.9944  -47.4058   S
   49.6611   -4.1657  -25.4803   H
   41.7457    5.9234  -33.2151   N
   31.8468   44.9277   15.7153   H
    2.1843    1.1325  -17.2712   S
   46.7639   29.4513   49.8158   N
  -42.1939    6.8378   47.7609   N
  -29.3378   28.2478  -36.5644   S
  -23.5361  -45.6038   12.4984   N
   -7.4855   32.5880   28.6314   N
  -28.8355   43.8218   19.1163   H
  -12.1767  -35.7369  -19.0596   S
    6.3628  -23.4692   12.8410   H
   10.6921  -19.3145  -35.5248   N
   45.4264   14.1744  -31.1491   O
    5.0475   17.3416  -27.4473   H
  -20.7085  -32.7823  -17.9638   O
   24.0427   24.0481   30.2787   S
  -31.7980   46.7198    9.8956   S
  -10.4475   19.3392  -37.9217   N
  -42.1872   25.3449  -25.3636   O
  -31.2296   36.8712    3.3106   H
   -6.3323   -3.0425   -1.1114   S
   -4.7890  -21.8948  -34.3137   S
   19.8943    5.8391  -36.7772   C
   -9.1148  -17.1755   16.9179   H
   17.5751  -25.9564   -2.0455   S
  -17.1072   42.7486  -31.5077   C
  -49.8986   30.5160    2.4070   H
  -14.5845    8.4536  -23.7414   C
    2.7895    0.5010  -17.5308   O
  -26.7213   27.2957    7.3285   O
   26.9289   23.8280  -23.2967   S
   28.8738  -11.6865    2.4262   C
  -31.8687   -8.3597   38.7961   N
   21.9358    8.5978   -0.5653   O
   -1.7392  -16.1194  -13.7247   S
   16.8563   31.8167   22.7163   H
   15.2673  -16.4813  -24.8491   O
   28.4698    9.9226   16.0927   H
M  END
$$$$
