Generated Ligand
Programmatically generated
Comment line
100  0  0  0  0  0            999 V2000
  -18.6252   24.2321   -8.4527   H
   10.6724   49.8378   13.2291   O
   11.6844   43.5561   38.0083   S
   -6.0931  -30.0403    6.9722   O
    0.1163   14.5922   36.3202   H
  -36.5036   31.1568   -3.1173   S
   43.0652  -15.4535   19.0519   C
  -10.0635  -33.0700   10.8237   H
   19.7644   42.9420   27.2860   O
  -13.6327   -1.7731  -47.8284   H
   44.8912   34.4981  -17.3005   C
  -31.4270  -24.0904   16.1467   O
  -48.9727   48.7719  -12.7698   H
   17.7484  -26.4204   23.4597   C
   45.5350   20.7344   -9.0791   S
  -11.7204   48.4378    8.8725   H
  -44.1520   16.6458   40.1009   O
   45.0664  -26.8619   20.1122   C
   39.8521   39.8946   10.1033   N
   24.1309  -27.8109  -12.1270   O
  -38.3482  -23.1940  -48.6802   C
   -8.0744   29.1147   47.3285   O
   10.4787  -13.1757   26.5900   N
  -30.1971   43.0027    1.8104   O
  -31.7210  -21.3557  -20.0146   O
  -20.4524   44.6063   20.7266   O
  -41.8922    5.2094  -48.3887   S
  -23.6772   17.1996    2.5037   O
  -43.1344   12.8040    8.2205   C
    9.0941  -43.1795  -10.8194   H
  -27.9356   21.8427   17.0002   N
   14.1458   39.3361  -42.1828   S
  -40.1662   44.1826   45.1415   H
  -38.5553   15.2806    1.3337   H
   44.5011    5.0961    4.8109   N
  -12.2072    7.8717  -47.3007   N
    0.4714  -43.0853   10.3371   N
   32.2617   11.1501  -26.6771   N
   25.8457   -8.0085  -31.9775   N
   18.1825  -41.1391    7.0239   N
  -25.3179   49.1515   28.5578   O
   43.0712   -3.6160    2.9907   H
  -20.5023    9.5076   -0.0098   H
    3.1633   44.9133    2.7954   O
  -45.9729  -13.3855   21.3177   C
  -17.4100   46.3141   -8.0276   C
   15.3157   -1.6356  -43.4076   O
  -44.1402  -15.4575    8.3194   N
  -29.2782   17.9179  -18.4190   C
   43.6960  -26.1656   41.0373   O
   -4.4493   -8.7370  -13.8089   N
   41.2031   33.0263   -7.6816   S
   49.4837  -17.2960   -0.9674   C
   46.2159   47.3796  -12.1859   O
   22.3715   24.2878   23.8592   H
   37.2378  -49.3639    0.0864   H
   -8.7893   26.7608  -42.0635   N
   11.5044  -18.1434  -30.7554   C
    9.9337  -34.3446    9.3700   N
    9.0271   -0.6598    4.2368   O
   48.2866  -46.2249   -8.5487   S
   32.7959   41.8325  -22.2506   O
   22.8877    4.0143  -32.0564   H
   20.4884   -9.8583  -44.4327   C
   35.4995   11.3057   41.1635   H
   27.9398   34.9070   28.0685   N
    5.8929    6.4731   -1.9988   O
   28.5874  -36.5291   44.6853   C
   13.0776  -19.4314   41.1339   H
   37.6489   -1.6621   18.5595   N
  -37.3241   -7.0515  -43.4232   H
   -4.0132  -44.3204    9.6820   S
   44.2778   16.5335  -32.9950   O
  -11.0421   -6.6148   25.9185   C
   37.2488  -36.2053  -10.7985   S
    4.0069   -5.6043  -12.7874   H
  -42.5136   -3.8869  -28.3555   O
   29.0518   -9.1664   16.3173   S
   17.2627  -16.8034  -17.1582   H
    2.0427   14.6512   35.5415   S
   18.1147    4.8404  -22.0292   N
   39.2662   49.0944   -3.2311   H
  -19.7179  -12.4971  -25.1640   N
  -34.6061   23.3320   47.1357   C
  -11.2079  -13.1425   47.2451   H
   11.3149  -16.5728  -43.5507   O
   43.8694   -4.8146   21.3916   C
   33.6158  -15.7002   -1.8745   C
   14.8419   24.2502  -45.1536   H
   43.3411  -26.4120   39.3503   S
   23.5559  -13.1978  -21.3075   H
   46.7170  -19.7378   29.8805   N
  -46.2252   -9.3884  -18.0078   C
  -17.7308  -16.7259  -47.1049   O
   40.0073  -42.6978    8.8452   C
    0.1007   43.0837   24.5666   H
   31.5440  -47.7454  -15.7941   O
   36.2869   15.9411   47.4655   S
   45.7451  -30.9334  -47.6680   C
    9.8635  -42.5054  -45.0978   O
M  END
$$$$
