Generated Ligand
Programmatically generated
Comment line
100  0  0  0  0  0            999 V2000
  -13.9069  -31.2599    7.2220   H
    4.7198  -13.7778  -19.6674   O
    7.0151   11.0223  -17.0615   N
   35.5731   34.3855   12.8447   H
    7.5364   17.3192   40.2950   C
    9.0023   23.6093   17.5628   H
   -6.4442  -48.5447   39.7091   H
   20.1748   -2.6645   40.0960   S
   38.5394  -47.6211  -44.3722   N
   33.9390   11.0070  -40.2597   O
  -46.5161  -35.9378  -44.4221   S
  -41.8226  -23.6576  -46.8160   C
   23.6189  -15.5451  -19.8808   N
  -32.9048   49.7362    3.5268   H
   38.3223  -25.3025    2.8868   S
  -32.8317   22.0148   37.2727   H
   29.4048   38.2911  -43.1251   H
   47.1264   -6.5196  -27.5445   O
  -10.9404   18.0464   44.7835   N
   38.3876   25.9595   36.0610   H
    5.9801  -27.2021   -5.1930   N
  -28.4516   13.3382   -3.4932   C
  -21.8523  -18.4278  -36.0210   S
  -45.4734  -13.8820   35.0454   S
   45.9815   38.0772   -4.7194   S
   -2.6058    3.9324  -15.6496   S
    5.6962  -41.4707    6.7093   S
   43.3128  -18.4363  -32.3863   H
  -49.5147  -26.8062  -44.5068   S
   -1.3922    6.7116   36.4682   S
   14.1231   12.7291   37.2751   N
   45.7001   33.4726   -9.6536   N
   32.3732  -39.9418  -37.3585   H
  -33.5359  -38.0627  -43.7648   N
   36.7574  -33.8441   26.1950   N
  -19.0466   36.0205  -33.6009   C
    5.6725  -34.3173  -42.6197   N
  -48.2537   29.0149   45.2712   H
  -38.6020   23.5989  -11.3254   H
   38.7219   -5.3100   16.2454   C
   23.9506   -0.7970   42.0714   N
  -48.0907  -41.6103  -23.4820   C
  -13.5431   -4.6496   44.1061   H
   25.2581   35.9425  -20.4607   S
   -6.6107  -38.2067   12.6203   O
  -19.2921  -43.8609  -27.9269   C
  -30.5124    0.3120   49.9167   N
   13.5746  -11.7156  -38.1592   H
  -12.6448   37.4645  -12.3769   S
  -21.2590   17.8801   17.6494   C
  -20.6632   48.0803   25.8907   S
   41.7910   -5.4533   -1.8365   O
    7.7555  -28.8539  -30.8506   H
  -49.0593  -12.4493   26.7078   H
    1.6411  -46.4026    4.4008   H
  -11.4420   -4.1163   -8.6528   N
  -44.3043  -15.0070   18.9576   O
   26.3771  -36.7048  -29.7801   C
   30.7730   -5.1227   12.0957   S
  -46.2902   35.1033   -2.6748   S
  -17.5222   15.3669    8.0101   C
   25.3898  -27.7244    0.7184   C
    8.6290    9.8662  -34.6223   S
   48.9657   25.4997    1.4227   O
   -9.2429   45.7797    0.4315   S
   49.2581   -0.7503  -26.2627   C
  -18.9667   -6.6061  -47.1097   C
   12.3860  -27.5261  -10.1034   H
  -42.4479  -47.7105   44.1231   C
   42.1859   28.9745  -13.6595   N
    8.8706    1.1664    9.9565   N
   -2.9055    7.5998  -25.2344   S
   21.9343  -34.5180   -1.2364   S
    3.2397   37.6205  -12.4364   O
   11.4384   40.3997  -33.1338   O
  -47.8726  -46.8640   15.4468   H
   19.1187  -43.9798   23.7481   O
  -31.8857   29.1860   30.5777   H
  -22.1580  -40.9758  -26.3915   C
    6.9273    2.0264   -6.2958   N
  -21.5672   -6.9967   16.2924   N
   23.7774    1.9319  -35.0761   N
  -38.1050  -27.3226  -33.0091   H
   30.7289   10.9544   45.6523   N
  -11.7162   48.3333   45.6588   O
   46.3391   48.2015    4.5492   O
  -30.9805   37.2230  -39.5482   O
  -32.7033   48.3661  -24.7507   O
   16.2093   -8.3251  -13.9941   O
  -13.5828  -36.8779   20.8796   O
    7.1785    9.0888  -18.7506   O
   49.8581   48.4277  -35.9077   H
  -36.1447   -2.2972  -25.7989   S
   36.2173   -9.9524   41.3458   N
   -1.3784    8.5017   35.6642   N
  -25.1761  -47.8152  -37.0064   H
  -48.3433   42.5721   -1.0966   H
   48.2182    6.6345   41.8208   S
   48.6633  -40.1529    4.5151   O
   26.6760  -19.7660  -40.2229   H
M  END
$$$$
