Generated Ligand
Programmatically generated
Comment line
100  0  0  0  0  0            999 V2000
    2.4998    7.7808  -46.4958   H
   32.1701   13.6943  -14.8719   S
   43.0081  -43.3476   36.2795   S
  -23.3298  -47.9809    3.9852   H
  -21.1429    1.8885   31.8396   O
  -41.5898   -1.9763  -46.5175   C
  -34.5733   13.2179  -14.8838   S
  -16.3446   48.2748   23.7169   C
   41.0917  -33.0287   -1.9419   C
   25.0656  -28.0346  -36.6448   O
  -36.3278  -31.9806   19.1600   H
  -43.0860  -25.1667   26.2055   O
   35.0274  -30.3449  -23.7013   S
    4.3847  -45.8079  -30.6019   S
  -36.7577  -36.9037   11.0481   O
  -21.4962  -47.9846    0.7950   S
   32.8496   10.7002   20.1614   N
   38.6177   49.5076  -47.5092   O
   19.2163   24.0814  -28.6284   S
   47.3847   45.8226    8.5257   C
  -23.8639   32.4369  -38.4532   C
   22.7895   49.8893   40.5507   N
  -29.2938   40.2511   19.1604   C
   27.4210  -27.0083   47.5224   O
   47.7310   -1.0508   16.5590   S
  -31.8492   -0.5756   44.4261   N
  -48.3913  -23.1252  -35.7707   S
   32.7248   24.2254   32.2426   S
  -25.8365   -2.0383  -44.1568   S
   18.9064  -46.4307   42.3451   O
    1.6704  -41.6233  -40.3969   H
    4.3802   14.5642   22.7594   C
  -37.7462  -32.5847   32.1985   H
    2.1535  -15.9316   -5.4818   C
  -15.3519  -12.0416   14.9971   H
   31.4487   49.6287   -0.4753   N
   11.4183   47.9370   -8.7390   C
   14.9176   12.9956  -43.2730   H
  -11.3674  -28.0331  -21.6325   N
  -42.9493  -22.6563    4.0875   S
  -44.3696    5.7658   34.4744   H
  -30.4784   28.2493   31.0270   C
   15.2397  -38.7497   -6.3646   S
  -33.5807  -24.7949    2.4944   C
   -6.6210   11.3046   32.1519   S
  -22.3647  -11.7195  -46.4437   N
   27.3228  -37.4286  -34.6548   N
  -17.4429  -34.4970   36.5299   O
   -4.9199    2.0511   49.4130   O
   -9.0972  -22.5305   18.1733   N
   24.5380  -46.1910   16.6800   O
  -48.2417   -5.8865   -8.3546   O
  -32.8952  -22.4243   -3.8745   S
  -20.3334   49.0347    8.5092   H
    0.1958    5.0027  -36.1575   O
  -36.5883  -41.2496  -18.7974   O
   39.9056  -31.6527  -12.9139   N
   11.7971  -29.9144    7.7012   N
   16.9585    0.2060   23.6932   S
   -1.7036    5.1524    0.3898   N
   43.9170   16.8858    8.3057   N
    0.6434  -11.3471    3.4667   S
   27.4810  -11.4998   16.2812   H
  -17.9645  -11.6186   20.0956   H
  -39.7972   -3.8363   42.2908   S
  -48.7943   39.3479   -6.4455   O
  -31.9549  -27.4229   38.4431   O
  -45.6792   45.8400  -41.7636   N
  -44.1229  -33.2381  -41.8738   N
   -4.5613  -31.9392   26.5127   H
  -14.4462   43.6793   21.6746   H
  -42.0683    4.0802    1.8951   N
   12.4568   14.5876   29.2259   O
   42.8589   36.2942  -44.3382   S
   33.9898  -47.7780   27.1334   C
   36.4616  -12.0685  -18.5323   H
   29.2700    8.3210   22.1231   O
  -14.0587   -0.5232  -32.2788   C
   -5.9280    8.6753  -26.4416   C
   19.7860   16.4965  -17.8866   O
   -0.6736   49.9921   45.3477   O
    0.3300   20.8690   -7.7121   N
  -38.0713    9.7434    6.1367   H
   10.7736   39.8415   44.5255   N
   -9.1948  -10.2137  -25.0761   C
  -17.3992  -27.5480   19.2127   H
  -18.8893   28.6988   15.7580   C
   48.5515  -16.8095  -31.6673   H
   -0.2014  -39.5848  -41.9559   C
   37.9154  -44.0931   -4.1943   H
  -44.4886   35.6963   11.6081   O
    1.3123  -39.8965  -21.7087   N
   10.7253   10.3353  -18.6151   C
   10.1325   42.1404  -19.5083   S
   29.8798   37.0463  -43.1220   H
  -28.6738  -37.9884   35.2219   H
  -33.3835  -29.3920  -41.9956   N
  -18.0750   39.6148   13.2267   C
   12.3895    6.9220    7.1326   C
   28.0173   29.2234  -10.9564   N
M  END
$$$$
