Generated Ligand
Programmatically generated
Comment line
100  0  0  0  0  0            999 V2000
   42.8514   46.8493  -37.2495   H
   14.8160  -18.3023   -0.0496   O
  -44.2267   -4.3589  -36.8391   O
   -4.8349  -35.2508  -26.2354   N
   -7.0176  -29.0280   39.7543   N
   10.1365  -35.3232  -46.9999   S
  -34.9203  -20.0178  -16.2735   S
    5.2235  -11.3266    5.6768   S
   34.1718  -15.8068  -31.6209   N
  -47.5822    5.6065   -8.0357   O
   40.0270   25.9725    7.1601   C
   15.6536  -49.8429  -22.8512   N
  -32.7002   16.9764    7.2238   O
   -5.6179    2.7375   -6.5099   O
   23.8246  -37.9915  -17.1790   N
  -35.4384  -27.9932   13.4756   O
  -19.6051  -46.1214    5.4032   O
   46.2228  -26.4841   49.6735   O
   43.5994  -47.8425   33.5362   S
   10.4900  -17.2370    2.8513   H
   47.8310   38.2415   25.3726   H
   -8.2259   39.0285   24.3273   S
  -10.2317   -3.5870   23.3731   N
  -24.7767   22.3769  -41.6362   N
  -28.7751   35.0620  -18.1808   S
   -4.1730  -47.2566   43.6675   S
   37.4595  -17.7596  -45.8231   C
  -36.7642  -25.8089  -22.2654   N
    6.8536   28.6124    2.9132   S
  -11.6089  -22.3946  -38.2727   O
    8.1171   42.4661  -24.1110   O
    9.7533  -45.3703    2.8736   O
   -4.7929    0.8663  -42.5013   C
   -0.1404  -29.8207   43.6945   N
   47.4610  -36.0864    5.5337   S
  -41.2791   41.5922   48.3180   H
  -28.4621   49.4344  -40.6999   N
  -12.7105  -14.0308  -31.0072   C
  -33.1453   45.1202   19.5297   S
   -5.2216  -36.3827   32.0139   H
   29.2781  -33.0741   41.8646   O
  -11.5899   21.4444  -34.8530   N
  -29.1896    1.2341   44.9429   N
   46.9339   24.9917  -10.6428   S
   47.8729  -42.2929   31.5324   S
  -42.8387   40.2298  -43.9030   S
  -28.3405  -34.3936  -18.4240   O
   10.8134  -13.2119  -44.6768   O
   12.6928  -16.4800  -48.8686   C
   43.8022   -3.3083   10.7437   S
  -10.5865  -23.5226  -19.2625   N
    7.1709   13.6510   28.7979   H
  -24.9127   38.9805    7.2033   S
   45.1723  -37.0868  -40.3389   S
   -8.5339   37.4576   44.5807   N
   42.5681  -37.2920  -36.5293   S
  -25.9607    3.8862  -36.6893   N
   10.8252   18.8544   -5.6249   H
   39.5050   39.0902    2.0415   N
    5.2903  -46.2214  -43.3959   H
   19.3829  -13.0917   -4.8767   H
   30.6924  -27.0258   26.6687   S
   30.0316  -44.9320  -25.3373   N
   49.1392  -35.6354  -41.9465   C
    9.1411   49.3723  -30.6642   N
  -34.0294  -44.8796  -15.9108   S
  -49.9401   23.9462  -33.5228   S
   39.0763   17.7130    1.5732   H
    8.1533  -34.6167   31.4078   N
   33.3976  -27.8000   -7.6178   C
  -11.1885   47.3166   37.4551   N
   24.4371  -27.9254    3.8265   N
   32.4486  -41.1590   48.5243   C
   -2.0511  -10.8771  -30.4486   H
   13.1928   32.9613   36.3326   O
   46.4082   31.2876  -46.4558   S
  -28.7983  -28.8130   -6.8409   N
  -49.6635  -43.6404    1.0267   S
   44.4546  -12.9765  -48.3700   N
  -36.4589   10.0526   29.9654   S
   21.9532  -17.5574   30.0399   O
  -23.3337  -42.9371    1.5392   N
  -36.0016   18.0337   -6.3438   O
   -1.1489    8.6352  -21.7754   C
   25.4828  -45.3537   31.2776   O
   45.2789    8.4425   38.6329   C
  -14.3465   17.8124  -18.8524   N
   -9.0438   41.8045  -37.6390   S
  -48.0896   27.1741  -38.9900   S
  -44.9187   14.1811   32.2569   C
   -8.2273   49.1450  -33.1152   C
   48.2774   -0.6008  -12.4613   C
  -42.0419   18.1924  -38.8006   O
   42.9062  -40.1166  -27.7290   S
   41.3703  -13.9620   22.1368   S
    6.6827   28.5706   19.0258   C
  -49.1946   35.4662  -18.8792   C
   42.9909  -19.8907   21.0536   C
   47.8771    7.5547  -36.7602   C
   -6.2100   49.4546   39.1193   H
M  END
$$$$
