Generated Ligand
Programmatically generated
Comment line
100  0  0  0  0  0            999 V2000
   47.4356  -11.5022   -3.1120   S
  -48.1980   24.4519  -26.0360   O
   15.5605  -47.4658  -19.8263   C
   34.4480  -25.4233  -36.8062   N
   18.7095   -2.5655   49.9786   N
  -28.4798   34.3779   -1.1038   O
   26.4884  -35.0970  -41.0402   S
   16.8163  -21.9346   21.2773   H
  -23.0751   25.2261   15.8953   O
   43.1844  -47.2765  -10.5486   H
    2.1534   13.3080  -32.5306   N
   29.8539   -5.6351   26.8045   S
   46.7268  -44.6108  -33.3304   C
   23.3841   49.9734  -17.4572   C
   -9.5448  -11.0661   43.6836   N
  -17.5643   36.2445    6.6692   C
   36.7538  -16.5220  -41.2630   N
  -35.9414   -1.0673  -29.5253   H
   22.9998   12.7247   36.5042   O
  -12.6701   30.6396  -28.0093   C
   15.4038   40.6271   24.4949   C
  -10.3339  -15.3549  -40.4863   N
  -17.7458   40.4691   10.4616   C
  -13.6097   -3.4582   -3.4861   N
  -27.8344  -20.4161  -36.1100   H
   32.4998  -43.5383   -5.0584   O
   18.8838  -42.2851   38.7208   H
   21.1439   35.5971   22.5082   N
  -26.0788  -41.4140  -13.9936   N
  -13.4429  -42.9013  -38.5364   S
   43.5892   19.2873  -16.4842   O
    8.4442   39.9836    9.4928   S
   44.9941  -28.8560  -19.6823   H
  -33.3215  -40.5672  -32.5239   O
  -34.5351  -23.7927   30.3800   H
   19.5636   44.7624  -34.6304   C
  -26.5886  -33.6420   -7.3854   H
  -37.7016   31.1215   14.0255   O
  -15.9400   35.8152  -35.3978   S
  -37.9619  -29.1697   34.7624   H
    7.5442  -34.9998   39.5784   C
   32.7657   30.6211   -8.8325   C
   34.1691  -13.5866   -1.1038   N
  -24.5055    8.4457   -7.1425   H
    2.3940  -11.8953   43.0832   N
  -14.6967   32.3898  -31.4297   O
  -19.9909   12.4989   32.6978   N
  -49.0927   34.8408  -40.5576   S
   18.0285  -26.6639    4.7533   C
   35.3166   28.6090  -47.4782   C
   17.5052  -47.7018   19.8400   C
  -17.1926   46.5529   11.2361   C
   34.0866  -19.4556  -33.9700   S
   17.9576   -3.5654  -28.0514   H
    6.9176   49.8613   -1.3721   N
   17.7655   49.9351   28.8390   N
   27.8774    8.6717   18.0077   S
   38.2098  -40.2919  -18.2628   C
   35.5548   42.1426  -19.4558   N
   23.2555   25.7404   18.0835   O
   33.0134  -19.4981   40.2730   H
   32.2868   36.3458   -4.7800   H
   26.8737   -0.1138   21.9481   N
   -6.4950  -27.0098   -8.6427   C
    6.5574   36.0254  -30.8980   O
  -27.8204   10.8093    2.8444   H
    2.7641   43.0614   -4.8369   C
  -36.6973  -39.5381  -42.3665   O
  -26.5577    5.5945   39.1758   C
   24.3193    8.9811  -47.3808   H
    2.8800  -21.2909  -32.4979   N
   29.3660  -37.0072  -47.2101   C
   36.8234  -15.3789  -44.3681   S
   -4.4104    4.3053    3.7965   H
  -16.6230   14.4171   25.1267   H
   -1.6083  -34.6094   15.0385   O
   28.2020  -18.8804   16.8741   N
   19.7014   15.4068  -42.0098   H
    2.1428  -15.7859   34.4400   H
  -21.5339   42.1957  -44.5071   H
   17.4265   19.0139   13.2908   N
  -41.5685   45.1980   41.3343   O
   32.5603  -49.7090   44.9040   N
  -11.3474  -21.0615  -10.1829   O
   43.7695   -6.9461   37.6710   N
   32.3654   13.3779   27.5061   C
  -39.7186   15.2379  -19.2483   H
   38.9063    2.4420   14.2701   C
  -19.1120   29.5339  -48.6095   O
   -8.1608   29.9910   19.5254   H
  -22.1993   23.8199  -45.1951   N
  -28.0803   37.8103  -27.9264   H
  -18.2754   41.2783    9.8572   O
  -10.7974   44.5118   42.6186   O
  -41.2916   42.0905  -30.4268   S
    0.7148    2.3015  -30.0279   O
  -18.9838   27.6703    3.9995   C
  -41.6823   28.8123    4.9941   C
   42.4881  -30.3832   27.1463   H
   -7.1508  -41.0077  -45.2472   N
M  END
$$$$
