Generated Ligand
Programmatically generated
Comment line
100  0  0  0  0  0            999 V2000
    5.5311   29.2459  -46.0837   S
   30.9323   45.9767  -20.6489   H
  -45.4852  -43.0254   33.3915   O
   12.9282   47.5987   34.2365   C
  -39.7615   31.5561   41.3559   S
   28.8219  -28.5442   -7.3556   C
  -12.0915   -0.7128  -23.3934   C
   18.8446  -13.8255  -44.5322   C
   12.3456    7.8741   28.7406   O
   47.9166  -39.8431   21.4361   O
  -15.9364   -5.4268   23.9294   N
  -17.3541  -43.6220   19.8458   S
  -36.5430   25.5550  -25.4900   S
  -48.5939   34.5616    6.6208   O
  -15.1728  -47.0422  -17.1125   O
  -30.3852  -18.2681   48.7130   O
   46.3255  -23.2066   -6.8695   S
  -47.7669   -9.4949   33.9342   S
   20.2141   30.7284   23.3839   C
    1.1934   35.1990   13.8940   O
  -37.7946   49.6222   18.9211   H
  -20.8579   42.5151   -1.2541   S
    9.9891   42.8717   13.4169   S
   12.7357   15.7898  -31.1376   H
  -36.9660  -37.6903   -3.3199   S
   17.0023  -15.5517  -30.3468   S
   13.4751  -27.7420   49.5613   H
  -37.3929  -38.1917  -43.2891   S
   34.2428  -27.8700  -40.3461   N
   19.2318   -7.5981  -19.2719   S
    5.1261  -35.6154  -22.0245   C
   48.6356  -27.2624   32.4466   N
  -13.9840   39.6745   48.0994   H
    0.8584    8.4096    2.7405   S
   48.7286  -40.1809  -17.6908   O
   16.2934  -47.1709   -3.1747   O
  -18.2842  -13.0838   14.0371   C
  -11.7272    8.2917  -46.0842   O
  -26.2736   -8.4374   42.5939   S
  -36.9900  -49.4661   14.7037   S
   37.6398   25.3328    2.0772   S
    2.3817    9.1127  -33.2979   C
   26.9253   27.7668   -0.0507   S
   19.7624   29.9897   22.2158   H
  -19.5345   23.6453   17.8741   H
   28.5282  -28.2558   31.4169   H
  -36.8186   34.7212   13.5431   C
  -46.6182   -6.4474   21.3845   N
   11.3487   40.5151  -38.2768   S
  -42.5311  -29.7287   39.8606   H
   21.8863  -36.7063  -38.9451   O
    3.4287   36.3671  -20.5276   N
  -45.9770   42.3235   42.0912   S
   46.7245  -36.9756  -43.1040   C
   42.3979   11.9509    1.1675   H
   -8.1725   44.6065   17.4105   C
    9.0677   30.0540   33.2399   O
   -6.8794   37.5042   44.8730   C
  -44.8553  -34.6619  -25.5463   H
   43.8146    6.9943   30.2327   O
    7.4116  -11.8448   44.0437   H
   43.8563  -11.4216   41.2251   O
   35.4527   37.4571  -12.3878   S
    3.8450   49.7149    9.7150   C
  -45.1808  -35.9253  -23.7109   S
  -31.5356   11.2801  -30.3439   O
   14.7347  -19.3381   46.7567   O
   42.0621  -47.1907   27.3026   S
  -25.2944   16.2564   33.0185   O
   40.8350   38.2181  -22.8296   H
  -43.6796   37.3303   17.7847   C
   -6.2206   39.2555   -3.2360   N
   40.7023   -0.4074   -3.8320   S
  -11.9176   45.1369   13.1144   N
   38.9012   -3.8201   30.6638   N
  -25.9207  -28.1535   26.3285   C
    1.8333   19.5060  -38.2551   C
    8.4460   20.5476  -21.7047   S
   42.5317   -7.2773   13.1105   C
   34.1161   -2.9881   11.7343   C
   18.5855   29.9044  -11.2881   S
    5.3779    0.2936   -8.2241   S
   -1.9385   17.6841   16.2574   C
   12.4443   19.5639   23.4933   N
  -20.1815   25.5317   17.5196   S
   34.1149  -22.0762  -40.4511   H
  -25.5629   22.0612  -39.2782   S
   37.7166   46.4777    4.0080   N
  -29.4109   49.7712   39.5221   N
   26.5278   17.2520  -39.7526   N
   -3.3149  -30.1595  -36.4905   N
   16.7999   39.0155    7.5741   S
  -37.9506  -39.9111   33.8986   S
   13.4457  -44.4327   -1.9726   O
   44.6861  -48.1188   -5.3343   C
  -46.9584  -42.9645   42.9358   C
   37.8386   -1.5203   -0.1243   C
  -44.9571   -8.7129   16.8704   S
  -14.5664   35.6946   38.0188   N
   18.1154  -29.7751   38.9260   H
M  END
$$$$
