Generated Ligand
Programmatically generated
Comment line
100  0  0  0  0  0            999 V2000
   22.7293  -47.2615    8.6231   C
   39.1605   24.6350   -3.8533   C
   29.8078  -38.4307   24.1879   S
   31.3944   39.8784  -25.8925   N
    4.3949  -31.9269  -46.9270   N
    7.0994    5.5061   13.2477   O
   12.2599   44.1195  -42.9263   N
   10.0667   16.9449   35.2174   H
   -8.8508   33.5096  -21.9594   O
   29.8244   24.5390   15.6548   O
   19.4713   44.0569  -18.6731   N
  -32.6267   -5.5338   -3.7799   S
  -21.5877   16.0371    9.1343   S
  -20.4286   45.0876  -36.5759   S
  -24.5212   45.1044  -19.8206   C
   -4.9665   38.8099    4.0395   N
   -5.7557   18.2306  -39.4130   N
   14.9860  -37.7073    3.0770   C
    3.1049   32.4045   -1.7254   H
  -15.8542   -1.4390   33.2573   O
   22.9563   32.1063  -47.9580   N
   -0.7176   35.3645   17.5420   H
  -13.8772  -24.7160  -28.8289   N
   10.1647    5.2078    2.7885   S
  -13.4421   18.0616  -26.9361   H
  -15.0279   12.4181   19.5670   N
    1.3376   37.7555  -21.9233   S
   11.5954   -3.3085   23.7092   N
  -44.2683  -48.8135   23.4592   H
   44.2056  -36.3836   13.4402   N
   16.6886  -38.1389   48.0732   S
    7.9737    7.7131   48.0190   H
   10.3641  -18.2658   25.2786   O
    8.4159   13.6440  -49.2290   O
  -43.2753   10.5738   18.4206   O
   42.3532  -22.1667   -3.0407   N
   34.1281   16.5103   29.4325   N
  -28.7995   35.2628   29.6292   N
  -22.3095   -9.7365   41.1961   N
   31.7246  -10.7886    2.9681   C
   18.9866   19.5309  -24.5120   C
  -48.7380   -9.0831   18.2061   C
  -18.4090   39.7090   11.3994   C
   46.5290   -0.2670   47.9660   S
   10.7712   31.3879   23.3741   O
  -45.5540  -12.9860   41.7101   N
   15.7061  -28.6474  -12.7705   H
   -9.9065   -8.1990    8.5019   C
  -35.3934  -23.8847   16.6262   H
   32.3549   -1.4779   14.1007   N
   29.9094   34.0517  -31.3610   S
  -49.7386   20.5880   -2.7501   N
  -18.0970  -12.6912   44.0109   S
  -42.3523  -26.3803   38.6990   N
   37.8151   38.9122  -35.3542   N
   -8.8399   31.3420  -36.4676   O
   49.5844  -41.4283   14.1067   O
  -20.5445    5.5035   18.3891   H
  -14.4203   36.9176    2.5536   C
   13.2978  -49.5868  -33.1340   C
   19.8578   27.1921  -49.5899   N
   -6.1021   28.9923   -2.8315   C
  -18.3790  -24.3612    0.3541   H
  -38.0856   49.2562   34.5082   O
  -32.5632   -4.2301  -37.9793   H
  -27.0530   38.3869   38.6019   S
  -28.1635   11.7647  -36.2700   N
  -31.2232   26.8699   33.5830   N
   38.9771  -38.9576   13.0332   N
   45.0327  -33.0828    4.1556   S
   -1.8874  -18.1397   25.3649   H
  -25.0590   -0.9145   23.4185   O
  -44.8569  -10.4825   -5.9308   H
  -47.5150   40.5793   12.1804   O
  -32.5084  -45.2315   10.4419   N
   -6.9029    5.7555   49.3032   H
  -40.0902  -34.3157    7.7408   N
   17.9489   37.1385   32.5501   N
   12.4201  -31.7958   49.0790   H
  -45.4488   24.9495   22.9454   H
   36.9228   42.2459   33.6976   O
  -44.8228  -20.9106  -20.1935   S
  -40.4184   49.5302   47.7471   N
    5.4807   39.4154  -45.3828   S
  -37.5615  -24.0353   36.5910   H
  -33.8078   47.6885   -8.7543   S
  -44.5768   16.6416   35.3909   S
   15.3624  -45.0117  -11.4124   N
   20.2467  -37.6905   10.6193   O
   42.0692  -13.9537   37.9127   N
   17.3920   24.0677   36.5462   S
  -33.2238    1.9687   29.7785   S
   48.9608   -8.9131  -35.9716   N
   33.5079  -48.5201  -36.8308   C
  -41.3847   29.7308   41.3766   N
   10.1407   40.8534   27.0297   C
  -32.3664  -24.1181   33.2340   O
   40.2875   48.6156   45.9349   S
  -35.4026   10.5722  -38.4688   O
   10.8722   -2.8141   26.9887   S
M  END
$$$$
