Generated Ligand
Programmatically generated
Comment line
100  0  0  0  0  0            999 V2000
   19.5173   -8.7716  -49.1678   H
  -29.8426    8.2680  -16.3087   S
   -2.8287  -43.1594  -16.1733   N
   27.2228  -28.4269   -1.7085   O
  -20.8440  -23.4521  -42.1907   O
  -11.1699  -23.2100   -4.7596   O
  -19.3859   23.9090    7.3741   C
    0.2740  -48.6588  -24.6622   N
   31.5244   -8.5103  -41.5989   O
    9.5929    5.3471   -1.8796   H
   17.2293  -36.2292   47.1841   O
  -34.4872  -34.4825   33.5871   C
  -40.7219   -4.1080   28.4072   C
   35.6027    3.0040    6.4793   N
   -2.0240   19.9527    7.5615   H
  -17.2822   42.5278   23.8321   N
   -2.2366  -34.8935  -23.2305   N
  -35.9114  -35.6728   -6.4452   S
   -2.6857  -48.3580   28.1663   C
  -36.2712   38.4984  -30.2325   O
   32.3382  -37.6240  -32.0349   O
   13.1181  -16.5787  -19.3138   N
   -1.8326  -47.6696   13.8965   O
   25.6002   41.9866  -36.1417   N
   26.7159  -29.0844  -20.4408   N
   15.0635   17.5161   23.6250   C
   33.9567   12.3037   17.9373   C
  -45.5416   -7.5211   14.5367   C
   49.1306   37.3173   15.9962   N
   33.6295    5.4893   19.0841   O
   37.5445  -34.5298  -31.7339   S
   43.0088   25.7822  -38.1953   O
  -30.2458  -13.4103  -18.1258   S
   27.8641  -21.8147   -9.9053   S
  -11.4330   30.4742    0.0301   C
  -31.7292    0.5691   11.7026   S
  -24.2359   28.8461  -16.0343   H
  -31.1947   16.7881   39.5668   C
  -33.5691   10.9443   33.8486   C
   44.2647   44.3532  -49.7899   C
   45.3400  -39.1654   46.4086   N
  -36.9403   11.9531  -34.5176   S
    0.0983    8.2580   33.7836   O
   39.3923   35.7317   39.9267   H
  -24.2493   37.8816   38.7911   O
   24.8425   11.7367  -28.7184   C
    0.0905    8.5361  -22.9923   H
    0.4843   48.9193   25.9890   N
  -31.7074   48.0208   31.5401   N
   -3.1138  -27.0902  -24.4059   C
   36.3451  -11.1691   29.3156   N
   37.6444    2.8247   14.8643   O
   49.9322  -39.8468   47.2240   S
  -34.8265   11.3565   -0.6881   N
  -21.5878  -22.0957  -24.8892   C
   -9.1719  -25.2194  -20.0511   O
  -27.3920   17.6561  -40.8136   S
  -28.7430   -4.0874   45.2673   N
   11.8209    2.9515   -7.2981   C
   20.0624   45.8653    6.3664   N
  -47.8771  -41.5808   -0.5868   H
  -12.1168   22.7754  -46.8697   C
   -4.8976  -27.7586   44.2054   N
   18.4738  -29.2039   22.6999   N
   25.7884  -18.9697   31.0717   N
    5.7294   42.0995   21.7757   C
   -4.2091  -24.7771   26.3666   S
   -1.7115    7.2205   -6.2480   O
   43.1359  -43.5696   17.8644   H
  -12.8027  -17.0468   33.3238   H
   20.9500  -23.0189   42.6517   N
    3.0018   16.7461  -47.8407   O
  -38.1446  -23.3709   49.0471   O
   27.4758   20.3318   -7.6124   S
   15.3198  -31.8830   -7.3962   H
   18.4234   42.1041   36.9532   H
   43.4353  -32.7446  -38.3885   S
    1.4833  -45.9833  -34.8615   S
    2.5650   -6.5901   34.6658   O
   47.8810   41.9168  -43.7092   S
  -20.2867   13.4629   37.4854   S
   48.8483   42.5823  -31.9432   H
  -49.4098    5.2965   19.2993   S
  -42.4170  -19.5260  -25.7820   S
  -13.3005  -14.1982   26.1834   S
  -22.4782  -43.5542   32.7105   O
   22.5250  -48.4869  -34.1162   C
    4.3875   46.6794  -22.1870   O
   23.7928   33.7416  -23.8461   S
   12.6293   42.4801    7.1159   N
   16.3398   -9.0523  -25.8202   O
   49.3920   12.0912   -3.0782   O
  -38.2554  -20.8000   -0.3953   C
   40.3966    2.5812  -29.1890   S
  -41.4961   -2.2421  -42.9804   S
  -16.0881  -16.6285   35.3586   O
   -6.8964  -26.5200  -38.8552   O
    0.2336  -27.3692   27.1204   N
  -38.5677    9.4138  -32.4110   N
   -8.2003   12.5038  -44.7367   H
M  END
$$$$
