Generated Ligand
Programmatically generated
Comment line
100  0  0  0  0  0            999 V2000
    5.4240  -12.5288  -32.0805   O
   23.3657  -43.3603  -10.3511   O
   13.7534  -49.0471   38.2034   O
   47.5454  -38.0458    1.3975   S
   45.6666   39.8161    2.4081   O
  -13.4649   48.3564  -47.4874   N
   -8.5899   -3.7695   28.2637   O
   25.1876   29.8836  -17.3275   O
   31.0702   -5.7903  -46.9439   H
  -30.9901   -9.9559   12.6119   O
  -42.7181  -46.8020    5.8733   C
  -39.4821   -2.8724   26.6898   O
  -40.5737  -12.7140   47.0325   S
  -21.9418   26.7452   17.9599   C
  -21.3564  -49.1574  -46.3167   S
   37.1345  -40.2109   46.2350   C
   41.8171  -34.1214  -16.5930   O
   43.4907   16.1363  -46.0275   H
   49.1216   19.4302   47.3159   O
    6.3583  -25.6388  -20.8063   C
   45.5600    0.8135  -14.8428   C
  -38.3058  -26.2935    7.7317   N
   -8.4779   17.0375   16.7859   H
   48.7962  -11.5685  -11.9993   O
  -34.8459   31.9688   25.1625   O
  -39.9432   21.4606   16.0496   H
   21.2902  -20.8146   -8.7180   N
   43.2826    4.3343   -2.4314   S
   43.3849  -44.9843  -30.9304   O
  -10.8288  -48.2315  -41.5033   N
   -1.8140   -0.5842  -45.3961   S
   10.5945   20.1920  -17.3353   H
  -21.3579   40.7106   45.6333   S
  -41.6570   45.9329   35.5967   N
  -14.6195    5.1957   30.0225   N
   13.3084   11.3622   31.4818   C
    2.4870   24.6672   23.2677   S
   37.0057  -34.7233   21.0979   S
   17.2291   15.3653  -16.3256   S
  -13.8020    1.3700   43.7218   H
   33.9784   -1.1034  -17.7892   S
   27.8125   34.0673   30.4180   O
   48.9011   12.1832   38.5177   N
   12.5368  -36.2948  -19.1252   H
  -29.8824  -32.1028   -3.0049   S
  -43.7986   11.9359  -20.2561   N
  -48.2034   11.5708    4.2327   N
  -41.3115   -4.3529   35.8499   S
   19.9392   -1.0329  -33.4525   H
  -31.6595  -37.3023  -13.2769   C
  -30.2034  -31.1693   -5.0580   N
   38.3529   34.4039   13.0318   N
  -49.0002  -13.5590   40.2467   N
   41.2509   30.0560   10.5374   S
   -6.1682   -0.7231   33.1062   H
  -17.4401  -39.2585  -44.8334   O
  -14.9783   34.8340  -24.2274   O
  -32.6294  -44.8588  -47.4879   O
   -6.2927   28.2803  -45.4678   O
  -14.2870   24.9387   47.7631   H
  -11.9707   -7.2595    2.6224   S
   17.4990  -22.5348   45.6242   O
   -0.2660   25.3584    8.3472   H
   -3.7945   28.5346   -6.9744   H
  -30.8792   38.4802  -21.6325   N
   40.3424  -48.3974   10.7500   S
    9.1365   22.2326  -20.8960   N
    1.6094  -35.8839  -16.5971   N
   26.4861   14.3595  -15.0387   O
   40.6693  -41.4525    4.9180   S
   42.5011   30.8395   -9.9317   C
   30.1161   28.6294   49.5751   C
    5.8887   12.1751  -26.8313   C
  -46.2462  -36.9221   10.8879   C
   -9.8017   34.6618   40.7484   N
  -17.2625  -34.2236  -11.7696   C
  -28.9280  -14.1034  -35.9437   S
   16.8061    1.3047  -29.2156   N
  -27.9401   14.4139   45.3171   S
   17.1105   44.0020   21.7635   H
   34.5343   -0.3237   29.2531   O
   42.3312  -25.6371   28.5623   C
   -2.6147  -15.5074  -30.4766   N
   49.1981   20.3909  -26.1603   C
   15.9244  -24.8960   16.0775   O
   38.2599  -13.7786   -5.7649   O
   26.2524   10.5381  -43.0231   O
    2.6473   15.5026  -49.6145   C
  -27.1835   37.5383  -16.0477   C
    7.0585  -47.3081   25.7646   C
  -20.5619   21.1802  -12.2360   H
  -39.3227  -17.8908  -37.5394   S
  -45.7313  -46.2047   22.0824   N
  -20.3896   16.7094   24.9618   O
  -14.9370    2.6858  -11.5756   O
    0.8338  -21.6050   26.3649   N
   -7.5586   18.4573   17.7909   C
  -34.1346  -42.4274   47.8615   C
   43.4571  -41.3855  -49.3190   H
  -34.6738   21.2666  -45.0474   S
M  END
$$$$
