Generated Ligand
Programmatically generated
Comment line
100  0  0  0  0  0            999 V2000
  -38.2520  -38.2445  -43.7372   O
  -18.2884   40.6585  -13.9739   C
   13.7772   25.0363  -26.7809   S
  -33.5306  -42.4269  -47.0323   S
  -21.1039  -14.3911   40.0300   S
   27.1860  -43.2431  -31.6444   C
  -38.3435  -24.6391  -36.9902   C
   -5.9533  -42.6031  -21.9743   N
   -2.5148    6.9948  -40.1007   S
  -13.3894  -28.0713  -41.4762   N
   26.5407  -18.7411  -15.1879   C
  -20.9938   12.2913  -42.9756   C
   39.2691  -11.3314  -11.1206   C
   28.9215   20.6131  -40.8680   H
  -23.0440  -12.6421  -26.8089   C
    6.4643   31.7061   16.0323   S
   23.6198   23.0118  -11.0551   S
   11.2496   22.7584  -33.2439   C
  -11.3295  -35.0921   -0.9124   S
  -38.9963   17.5854   -4.7108   S
  -35.3942    8.2183  -11.0422   N
  -49.5660   -5.4190  -25.0075   H
  -36.7724   28.6590   23.1407   O
   30.7564  -22.5657    7.7837   O
   27.3010   -3.5120  -39.4965   S
  -12.0613   26.5208  -22.6670   N
  -12.2601   43.7199  -42.6378   H
  -23.7283   -8.6891   -4.1958   N
   33.4891  -43.9066  -35.4396   O
  -36.9014  -16.7259   39.5219   H
   22.3268  -25.7039  -48.6970   C
   -1.6333  -28.3565  -37.3365   O
  -34.2549  -23.1660   -2.3760   S
    2.7923   33.7198   26.4176   N
   30.7611   26.1212  -39.5743   S
  -21.6661  -19.2935  -46.1458   N
  -39.4193    2.2730   28.6802   N
   29.6992  -14.2978   49.3908   C
  -43.8465  -16.9757  -17.7029   S
  -43.1938    1.3489  -48.7054   N
   37.5060  -10.6418   19.5458   N
  -10.4353   24.2738    2.8443   C
   33.0065   16.7507  -29.2650   O
   -7.3241  -23.9368   43.9675   N
   33.2109  -38.2349  -49.0138   O
   27.1223  -46.0506   36.1550   H
   32.2195   13.6535  -10.4535   O
  -36.3928   -4.2350    9.5472   C
   47.9082   12.1750   27.5270   N
   20.4512  -21.7336   41.8128   C
    1.9846   44.4649   -6.9131   O
  -13.2900   25.8758    2.5002   O
   13.6069  -38.1486   -7.8488   C
  -42.4171  -27.7318  -25.6333   H
  -42.7013  -28.1251  -39.2693   S
  -35.3700  -13.7240  -14.6320   H
   20.6973  -26.5327    9.2030   N
   19.8898  -20.5911  -32.5115   H
   20.2163   -3.2145  -30.3037   O
   -7.3921   17.3813  -29.9066   N
   48.9609  -16.1027   -1.2697   O
  -13.3619  -43.8827    4.2727   H
   31.8476    8.3735   -0.9608   S
   21.1468  -32.0778  -27.1325   N
   33.7041  -16.8415   42.5997   H
   33.8120    3.7725   12.5054   H
   21.9526  -32.4622    4.8280   H
    3.0111   -1.9504   -4.8359   N
  -32.6269  -23.7717   30.0987   O
    0.7921  -45.6888  -24.0857   O
   45.4427  -45.6417    7.1981   O
  -41.2951  -20.6628  -23.8843   C
   35.8309   39.7812   39.2449   S
  -29.1606  -42.5654   42.6359   H
  -10.8242   44.3991  -40.3104   S
   -9.2754  -31.9774   16.2000   O
  -31.1345  -42.6124  -28.6235   C
   43.6383   16.0134   34.2998   S
   38.4852  -39.6860   22.4251   H
   44.6510   45.9057   32.5098   C
  -16.8856   44.0724  -13.0703   H
  -29.5445   12.8898   22.7557   N
   41.2629   40.3014   28.1854   N
  -13.8999   16.9001  -25.5703   S
   17.2514   19.7866   -0.1936   N
   42.0068  -39.7449   22.7862   N
    1.8016  -21.5420  -32.7783   C
   48.6591   39.9411  -16.2727   C
   30.8612    8.8950  -31.0749   C
  -16.1202    3.0406   12.3885   S
  -41.9609   30.8676   39.1633   N
    1.6115  -27.5081  -19.6030   H
   35.6138   38.6629  -13.9598   H
    8.0817   10.2482   42.9788   S
  -16.2734  -42.3338    8.5682   C
  -47.0692  -47.0122  -21.8643   O
  -14.3514   13.8664  -26.3765   S
  -20.0369  -12.8203   39.0082   O
   47.8296   32.8040   -2.5562   S
  -29.6301   10.1152    0.9695   S
M  END
$$$$
