Generated Ligand
Programmatically generated
Comment line
100  0  0  0  0  0            999 V2000
  -16.5282   13.7821   20.6335   O
   39.1095  -38.9075   38.5817   H
  -38.4307   42.5682   17.8640   O
   16.8221   -3.5352   43.1581   H
  -47.3510   42.8801   47.0270   O
   23.7820  -30.0883  -28.0507   C
   19.6580  -32.8520  -45.9839   O
  -29.9203   40.4819   10.6691   S
  -32.8312   -1.4962  -46.8126   H
   49.6027   22.7683   25.2618   O
   26.0852   27.7082   31.6206   S
   42.0619  -16.1623   -5.5393   S
   -5.7117   11.8365   -4.8325   S
   45.5216   -8.4141  -35.5012   O
  -16.8643   36.2483  -15.1836   N
  -37.6814   39.2824  -22.6115   N
   39.7290   24.4773   37.5516   O
  -35.4601   11.3379   34.4818   C
   46.0156  -14.1197   44.3235   S
  -28.1857   32.0224  -11.5327   O
   29.2277  -30.4453   22.7721   H
  -47.7657   -5.1878  -20.0200   C
    8.9316  -38.7339  -44.5149   C
   19.9207  -31.8068    8.1149   O
    0.3272  -19.0057  -11.2050   N
  -30.9913  -39.9568  -11.4554   O
   -7.3802  -19.4617   44.2182   S
  -41.1401   14.3624   34.3808   H
  -28.7390    4.1051  -34.5376   N
   31.7610   -8.1768   28.6010   N
  -24.4054   28.0120   15.6872   H
   21.3973   17.0675   46.9481   H
  -16.1891   -7.8684    3.1293   H
  -32.5615  -13.1902   35.6537   H
   16.9195  -48.1588   17.5523   H
   44.0101  -49.3421   40.4933   H
   -9.0463   34.6956  -28.5873   S
  -34.1507  -36.4969  -26.4830   H
    9.4235   43.3505  -47.0805   H
  -36.5050  -44.5895  -21.8994   S
  -37.7788  -15.6462  -27.5450   O
   42.2014   14.1310   31.2465   O
  -25.3142  -34.3428   24.1038   H
   -0.7758  -10.4119   49.1071   N
   42.1308  -24.2600  -13.5562   N
   21.9210   20.6523  -10.8214   S
   22.1299   44.5873  -21.0827   N
  -12.0382  -44.3756   48.1808   C
   47.7150  -40.9860  -38.1250   O
  -32.0092   49.2135   44.3587   S
   -9.9073  -31.3530   -3.6869   S
  -41.5137   -5.4493   32.1779   N
   29.4242   44.3309   42.9416   N
   38.7414  -40.4988   29.9146   N
   38.7559   -7.6567   43.2735   C
   45.7841  -11.8023  -20.6641   C
    4.6677  -42.2927  -16.5570   C
   21.7362  -28.3967   20.2988   C
  -38.6551   -2.9365   42.6236   C
  -25.9466    4.4153    0.6324   O
  -37.6728    4.6081   35.5778   C
   -1.1637  -17.5657  -30.2836   S
   35.6833  -33.3873   13.2512   H
   35.4029    2.4874  -17.2972   H
    6.8791   18.8659  -40.8785   O
   21.9395   39.2544   20.8411   S
   -4.7396   16.1820  -27.7472   N
    8.8153  -16.2318  -49.3401   S
   18.6065   43.8841  -45.6088   C
  -49.1815  -34.0859  -28.5976   H
  -39.7371   16.6608  -24.2336   O
  -17.1707  -34.7887    9.3706   S
  -39.6154   26.8991  -37.5397   H
   -3.2247   18.2487  -35.1855   S
  -22.9944   37.1716   31.1236   N
   26.2973   12.1338   14.9577   O
    9.8490  -19.8844   -7.9878   S
   29.4079   35.9078  -26.2696   O
   23.4428    9.6878  -36.5906   S
    3.8320   21.6776  -45.1690   S
   33.6103  -34.5610  -33.6978   N
  -34.7347  -41.5115   46.3705   C
   17.5819   11.1762   46.4350   C
   11.5699  -46.9440   -9.0752   H
  -15.7235  -12.9437  -19.2663   H
   48.1529   40.1616   31.8042   O
   21.6867   18.5768   38.1869   N
  -18.1716  -14.3334   17.2242   N
  -49.8038   15.2709    6.0056   N
    2.9237   29.5914   17.9939   O
  -43.6955   33.5261  -17.3646   C
   38.4995  -13.7156    0.8842   H
  -34.0387    2.3070   22.8019   N
  -12.0823  -24.4927  -33.3531   C
   38.1640   27.2941  -32.6627   O
   30.9653   16.6374  -26.0450   H
  -24.0051   31.1330  -35.4417   H
   -0.9883  -25.8235    0.3645   H
   -9.6137  -42.1597   16.0441   O
   -1.0042   35.3283  -30.2506   H
M  END
$$$$
