Generated Ligand
Programmatically generated
Comment line
100  0  0  0  0  0            999 V2000
  -43.2390  -23.9782   -9.0530   S
    3.2716   44.4699   -7.6126   O
  -36.3915  -25.4940  -46.2072   N
    7.3651    8.2014  -13.5061   H
   40.6715    9.8736   45.0907   S
    8.6860   10.9145   18.9202   S
  -27.6877   26.5713  -23.5340   H
  -43.9183  -22.1172   42.5117   C
  -18.2983   41.8182   36.7705   O
  -45.8583  -32.5963  -13.2960   C
  -32.3469   46.6365  -18.4531   O
  -49.5935  -23.6102  -39.6092   H
   23.1747  -29.8459  -25.1084   S
  -16.8992  -35.5885  -43.9047   S
    6.1606   27.6503   -3.1308   N
    1.6765  -43.7527   36.1979   O
  -44.5578    9.6304   -7.1856   H
  -21.3274  -39.1831  -31.7312   N
   39.3516   48.3608   34.6383   C
   44.3532   14.0347   31.2519   H
   21.8892   47.8669  -45.5523   C
   30.0099  -23.4293    3.4069   N
  -34.4038   -5.5164  -36.0865   H
  -45.4457  -22.6175   49.5124   H
  -12.3134    6.3513  -24.8690   N
    0.7434  -44.1337  -48.1428   S
    2.4429   45.8032  -14.5198   O
   42.6831  -36.8097   -9.4586   C
   48.4058  -34.1230  -24.7366   N
  -43.9923   25.6473  -42.4557   C
   42.5939  -47.6233   23.8182   S
    1.1810   24.0115  -31.9184   O
   29.6318  -33.6092   -6.7015   C
  -28.1650  -15.5729    1.7335   N
  -23.9413    9.6749   44.0719   S
   -3.3753   16.2857   46.6217   O
  -14.7545   -1.7279   48.7141   O
   -2.1578   16.3735   44.5187   N
    5.2586   36.0300    7.1293   O
  -23.8517  -35.4746   29.3786   C
  -24.0118   -2.2678    9.9286   O
    8.2488   47.3612   -6.9053   H
   46.7370   48.3140   47.3970   O
  -25.1242   -5.2678  -14.3431   O
   31.0684   37.2439  -44.2280   N
   -4.9810   46.0915  -22.5204   O
  -39.9761  -33.0458  -49.3612   O
   -9.3650  -43.9293   10.9336   S
   42.1423  -25.9460   -7.2566   H
   -0.8103   15.6995  -17.9335   S
  -43.9584    6.6800   23.4555   O
    3.9265  -22.0949  -27.0021   H
   -7.4836   46.9646  -17.9094   N
   38.2345  -34.7287   23.2885   N
   49.1942   45.3865   23.1221   H
  -17.5970  -22.6486  -21.5507   N
    1.1124  -18.6133   17.7936   H
   45.9623   -9.5472    4.7463   C
   -3.6424  -10.7976  -11.8367   S
   -4.4877    7.5503  -31.7000   H
   47.0974   41.9592    4.9334   O
    7.9535   30.3235   20.5100   O
  -27.9124  -14.3884    1.7343   C
  -31.6091  -37.3907   30.3573   C
   43.6448   -5.1742  -40.6297   O
   41.5114   40.4119    9.3114   H
   37.3842   34.9673   12.1815   O
   -6.4369  -20.1423   -9.2909   N
   45.2486  -11.0696   -2.5001   S
  -34.2911  -38.7476  -30.6739   N
  -20.4244   31.3328   30.7147   S
   43.3788    8.5469   10.2279   C
   22.8928  -33.2687   -0.3947   H
  -45.0093   45.5412   40.2221   S
  -40.9534   39.0632   43.3409   N
   -4.2622  -12.1021   15.5464   H
   29.0804   10.0368  -27.9293   C
   21.1764    3.4731   10.9677   N
   23.9711  -17.8407   23.9736   N
   -1.5599   35.4521  -47.6939   C
  -33.1584  -31.5902  -48.6319   S
   49.5877  -43.0447  -39.8600   N
  -10.7465   -0.8272  -29.3908   N
   45.1085   19.6083   38.7551   H
  -11.6127   29.6135  -34.7841   H
   39.9025   10.7203   18.0728   H
   35.1224   -6.2310   39.5188   C
   44.6825  -27.1379   19.2990   C
   38.0337   -8.0751   26.8258   S
   42.4220  -20.6169    9.7894   S
  -24.6837   24.4909   13.7863   N
   34.8628   17.6586   -0.3468   S
  -13.7043   42.5183   49.3164   N
   -0.0029   21.8469    1.8922   H
    5.5763  -25.6292   25.5155   N
   -7.1788  -27.8057  -33.4581   H
  -11.6555   12.8633   44.7799   H
   26.3088  -48.3402   35.3919   N
  -18.7346  -20.8419   31.7227   O
   -2.0597  -39.3838   27.6971   N
M  END
$$$$
