Generated Ligand
Programmatically generated
Comment line
100  0  0  0  0  0            999 V2000
  -38.4303   45.2619  -34.9093   O
   30.7655  -29.6900   -4.9744   S
   23.7725  -46.8596  -14.5960   C
    2.5909   49.3228   32.4168   N
   13.4702    8.5892  -20.5707   H
   16.2962   -8.1031   33.6333   H
   45.1161   -9.6682   -4.5658   O
   -6.4717   38.0836   26.5654   N
   35.9377   -5.3157   13.6457   N
   38.9743  -46.7625   45.1081   H
  -12.5763  -36.9839   47.0573   O
   32.3802    1.7073  -40.6003   N
  -43.0749    5.3461   27.7954   S
  -36.8001   22.3258   16.9563   H
  -10.9576  -38.2511  -11.2695   C
   26.1520   43.2002   48.3265   N
    2.1749   27.3010  -30.6996   H
   31.7071   35.7163   40.2527   H
    5.1950   27.7647   35.6590   O
  -30.6134   49.9414  -41.5037   H
  -43.5234   12.4662  -43.4190   S
  -11.8094   38.8962  -18.8335   O
   46.4360  -33.1120  -41.8386   C
  -32.6250  -19.0490  -42.8727   N
  -16.7121   46.6739   10.2065   N
   23.1589   36.5514  -34.1848   C
   17.3685   28.6251   -0.3550   N
   12.1034  -16.4457  -37.7789   H
  -33.8571   49.0712   -8.7323   S
  -42.7160    8.2790    8.3374   O
  -18.6072  -17.8221    1.1873   C
   29.0626  -45.0600  -11.0124   O
   11.3411   31.3001  -28.7554   O
   15.4543   -4.8998   46.3294   S
  -40.8721   47.3417    1.5845   H
  -33.5240   -8.9041  -31.7487   O
  -43.1950  -18.8655   -5.8886   H
   27.2838  -45.5797    4.5251   N
  -27.6365  -35.8332   44.3390   N
  -12.4126  -38.9955  -47.5106   S
  -14.2172   31.3842    6.9144   O
   -2.6316   10.5560   -4.0111   S
   37.2991  -20.6708  -45.0095   S
   32.4994  -35.1606    6.5712   O
   10.0584  -47.8454   19.8887   H
    3.6152   21.8371  -35.0686   S
  -49.7233   -4.6322  -43.5684   O
   49.0827  -10.3080  -32.3886   N
  -33.8003  -42.0216   39.6764   N
   24.0966   16.6872  -48.5792   S
   -3.6849   -6.4373  -24.2486   N
   33.3669  -39.7324  -16.0587   C
   31.6788   18.0545   -9.5824   C
   32.5029  -34.7072   42.6607   H
   12.7476   -5.5468  -17.7590   H
   45.9354   26.4264   20.1628   H
  -41.1982   18.5523    1.8121   H
   19.9231  -36.9674   -6.3129   S
  -17.4957  -46.0646    7.5765   S
  -39.7139   -0.6618   -2.3393   H
  -26.8147   -6.9743    1.0051   O
   13.2563   33.3748  -22.3099   C
   44.0605   47.0460    6.0439   S
   -5.1718    2.8997  -27.5562   H
   -8.3451   35.4789   33.1330   N
   40.5380  -27.9890   31.5856   O
  -43.7779   39.0750    4.4185   S
   -7.4325  -39.8991   37.7633   O
   -2.1377   35.2555   -8.9828   O
  -38.8268   19.5112  -10.6322   N
    0.3781    4.2891  -27.3784   O
   35.6793   32.3402   -6.0553   O
  -36.3586    7.7252  -30.3725   C
   47.7329  -19.9408   30.1501   S
  -10.5350    6.1968  -28.2799   H
    4.0017   -7.4323  -30.6933   O
  -31.5630   26.2708  -27.6257   S
   15.4605   35.8438   15.3120   O
   39.8939  -39.3416  -47.1522   H
  -19.6570    8.9029   49.3157   O
  -38.0169  -48.7688   21.1197   O
  -19.4149  -22.9503   34.4764   H
  -41.4811   -8.4461   24.8162   C
    8.9999  -17.3159  -38.4655   H
  -40.8394    3.7461   -5.8176   O
   44.3215  -18.2756   21.9343   C
   -9.3067   38.3356   38.7152   C
  -22.3582  -13.4082   21.7342   N
   -1.6573   37.5082  -37.6090   C
   49.0586  -35.1904  -19.5928   H
   48.4630   -2.6035   29.8295   N
  -15.8625  -41.9047    0.2381   C
   -5.0553  -39.2120   18.2707   C
  -18.6345   24.4901   29.8747   C
  -12.5033   -3.7474    6.0641   H
   -5.3644   30.0969  -16.5209   N
    7.4491  -21.4464  -11.6856   H
   20.3939   35.1721   -3.9360   H
   47.2635  -26.3666   45.0712   C
  -45.7799   41.8521  -38.2359   C
M  END
$$$$
