Generated Ligand
Programmatically generated
Comment line
100  0  0  0  0  0            999 V2000
  -25.2909   41.5621   -6.1665   S
   45.7911  -38.1165  -13.0549   O
   35.3159  -32.7112    1.6890   S
  -30.7728   15.3698  -39.5340   O
  -40.5397    9.3375  -21.4248   H
   -8.3755   46.1446   21.6573   O
   21.3460  -12.8620   -7.6498   N
   31.1101  -44.0600  -21.9176   O
  -32.7218    7.0265  -18.7205   O
  -30.4444   45.0958   47.8143   C
   43.2459   44.6823   41.3235   N
   17.6495  -44.9099   40.7687   H
   12.5352  -37.1539   41.9574   C
  -48.2481  -32.3534   40.4446   C
  -28.8337   46.5893  -18.0753   N
  -13.6657    3.3880  -48.8788   N
   24.8038   27.8966   20.3527   C
    4.6818  -16.3096   -9.6165   S
   47.7312   -7.3076    0.2331   S
  -20.7246   -4.8724  -37.3492   H
   21.5325   34.4100   37.8499   H
  -18.0197  -49.2007  -33.1973   O
    4.0286    9.4661  -17.0743   N
   46.2557    2.9354   29.3195   O
  -25.6445   -7.3885  -18.2016   O
   29.3475   29.3275  -20.0137   C
  -44.4133   -2.2536   27.1131   H
   37.3233  -31.4938   -3.2458   H
   -5.4210    0.0344    8.3764   O
   34.6320    3.2892  -11.9990   O
  -18.2617  -11.5120   37.8619   C
  -45.4441   14.1454   37.4419   N
  -26.8788   -0.4962    6.7421   S
    6.3003  -39.6325    3.3426   N
    4.4232  -28.3997   -1.0330   N
   -9.3064   -8.7373   42.7459   O
   15.4178   41.1466  -26.5161   O
   44.9216   33.7395   -6.2143   C
  -49.1642   40.7424  -17.3384   S
   -8.7077  -13.7842  -40.4638   C
   -1.7516   29.3053  -30.4605   N
  -19.0409   33.3613   29.7102   C
   38.1723   30.3041   29.7035   C
   23.8049   44.3884  -22.5538   S
   16.5193   37.9036   31.4096   N
  -24.6783    3.8087  -41.7095   C
  -29.6932    9.3428    5.9548   S
  -36.0017  -44.3403   29.9038   S
  -40.1981    6.6712  -43.8797   N
  -44.8155  -22.5712  -27.2405   H
  -28.8558   32.5231  -15.8699   C
  -14.5118   -0.7532    6.5453   O
   11.1294  -46.0101   11.1245   S
   29.4677    1.2041   37.8197   S
   17.8467   15.7791  -12.3455   N
   -7.6641   19.4709   20.8536   N
   45.5093   -3.2951   30.6183   O
   -6.6780  -49.9697  -33.5085   H
  -48.9600   22.9345  -28.5357   N
  -11.0636   38.6089  -11.2563   N
  -41.7642  -27.7848    4.6771   H
   -4.4166   13.3951   -6.3100   H
  -27.4963   36.5946   -6.6925   S
   49.3920   46.1161   13.2640   C
  -41.3664    8.4337   -3.1139   N
  -12.1460  -28.3764   40.5553   H
  -24.9214  -36.6920   34.1141   N
   37.8088   19.3851   24.8346   H
  -36.1275   30.0790  -44.9090   O
   -8.7505  -10.2580  -22.9722   N
   -8.3906  -32.1823   12.5538   N
  -14.4513  -10.0274    0.7197   N
   -3.3845  -41.4461    6.9540   H
   22.3181  -44.8401  -30.9179   N
   31.4539  -15.3919  -13.7292   H
  -11.8619   16.1361  -47.9423   S
  -16.7433   28.6343    8.5852   H
    8.8991   38.5895   24.7775   N
   31.8481  -14.2349  -21.4506   H
   43.1208   -3.7898  -24.0152   S
   44.3252   27.5872   30.4272   S
   29.5504  -17.9850  -19.7064   C
  -32.8572    6.8702   33.2250   S
    8.4199   40.2345  -34.8762   O
   26.4231   33.5711   37.6434   H
   42.3187   30.1893  -41.9160   N
   33.3812  -49.8758  -27.5911   S
  -11.1021   42.1842   39.9469   H
  -31.3226  -17.8557    2.1586   O
   39.3589  -37.1395  -25.5141   O
  -47.4354   43.2902  -16.4867   H
  -37.5694   -9.4024    5.5208   N
   30.1775  -33.1916   15.6680   H
  -21.6435   27.6217    5.6114   H
   12.3821   -8.8751  -22.9829   H
   41.1942   27.2516   -9.2832   O
  -24.7016  -39.5419   31.5609   H
  -32.6437  -16.8251   42.5208   S
   31.3281  -13.6394   -3.0693   S
  -22.2544   38.1461   45.6272   H
M  END
$$$$
