Generated Ligand
Programmatically generated
Comment line
100  0  0  0  0  0            999 V2000
  -13.4770    3.6154   -0.8022   N
   -4.0349   18.6719   28.9938   C
   23.8986   38.8637   23.7367   N
  -33.7594  -24.1664   12.3340   O
  -15.6091   40.5837   12.1572   H
   21.2539   34.4830  -29.1871   C
  -49.1836  -24.2703  -41.9572   O
  -35.6642   33.7846   32.4943   S
  -26.5838    9.5740  -41.3816   C
  -26.2778  -33.4374   38.1905   C
  -12.4112  -35.9986   35.5579   S
   38.9282   -9.8952  -17.3429   O
  -38.8108  -29.5848   42.7467   O
   28.3447   44.4875  -49.3909   N
  -46.2816  -28.0211  -41.7948   H
  -14.0569  -37.2573  -48.6566   O
   24.8973   40.5659  -34.7471   S
   -7.7637   -4.2767   37.3446   C
    5.9866  -24.7767   46.6045   N
    0.8727    2.3188   41.1827   N
  -17.0127    6.6897   21.7742   S
   19.6445  -37.8125    5.4514   H
   27.2589   21.4116    6.4213   O
    3.0427  -38.6588   26.7485   C
   10.7420   31.6693   13.4298   S
  -33.1584    4.1733   -8.8210   C
   34.3068   42.2901    2.4680   N
  -11.4601   33.1141    0.4894   S
  -47.6195  -32.3934  -39.3082   O
   36.3108   17.1764  -22.0089   C
   40.3744  -35.4656   16.8538   S
   10.4448   43.4828  -46.1363   H
   39.2348    3.2596   21.3304   S
  -22.6724   46.8551   26.8753   H
   24.4134  -17.7741   39.4095   H
   -4.9067   40.8103   34.0712   C
   12.2815    3.8989   49.7718   N
  -33.9078  -46.7553   47.3736   O
  -20.8582  -42.1557    6.6574   S
  -38.1884   45.2845  -44.3388   O
  -17.3500  -13.7908   23.4336   S
   -5.6934   28.7654  -49.8328   H
    9.9278  -15.1700   10.0596   C
  -48.4574   37.7052   -4.1094   H
   38.0401  -38.8849   26.9686   N
   42.9404   45.2616   47.6132   S
  -15.1110   47.3038  -47.8914   N
   -1.8461  -48.4883  -39.8351   S
   30.2237  -17.9220   24.5396   S
  -49.8930    3.6931   37.9756   S
   31.3954    1.9101  -12.0519   O
   47.3461   34.2244  -10.0771   H
   34.3239   40.4205   46.1570   S
   45.9434  -49.2744  -25.8112   N
   33.5097  -48.0391    5.0194   O
   42.0301   25.0066   -6.1358   O
   -0.5565   -0.6284   33.8416   S
  -27.3600  -47.3812   41.0112   O
  -35.3046   40.3979   -8.8359   O
  -19.1483  -10.3204  -21.3780   S
  -17.0581   38.0821   34.3926   H
  -42.1305   10.4212    8.5671   C
   43.7127   30.4184  -47.2034   O
   -0.9260   20.6506   20.8848   N
   20.9233   15.4030  -41.9892   S
    6.7515   13.3822  -28.3530   S
   20.9899   40.1074   -4.7350   S
   -0.8918  -45.7720   19.6679   O
  -46.0648   19.5676   23.2329   O
  -29.7596  -31.8774   -7.2918   N
   47.6532    1.6319  -44.3286   C
    2.8571  -21.3423  -34.5415   H
   26.2643    4.9481   19.2950   H
   39.6768  -46.6878   12.7692   S
   29.5287   -4.4283   33.2709   N
  -23.3623  -31.3953    7.3980   C
  -31.9404   27.0736  -24.8763   H
  -29.3051   -5.2230   49.7643   O
   41.1682  -31.9671  -22.5807   H
   34.9484  -36.5495   13.7511   H
    0.4978  -33.1137  -49.1457   C
   26.6841  -22.8704   42.6482   S
   24.8535   41.2441    9.5902   S
  -42.8269  -38.1086  -20.8549   S
  -37.1758   16.9680  -40.0643   C
    2.6407   36.1194   37.2224   H
  -13.9271   32.4405  -34.6284   O
  -20.5842   15.6329  -41.0735   H
  -10.3844  -38.4497    0.1651   N
   12.4785   21.5358  -26.7769   C
   -5.3458   23.1472    0.0052   C
  -32.6925    1.3519   30.0525   N
  -21.7403   11.3848   18.4144   S
   26.0773  -25.3937   26.0020   C
   -5.9658  -36.6390   -3.4138   H
   48.2613   46.1960  -28.3879   C
  -15.6569   34.8378   -0.2506   H
   29.7236   27.5664  -35.4846   H
  -32.6704  -15.6969    0.0276   C
   32.7446   39.2642   39.1709   N
M  END
$$$$
