Generated Ligand
Programmatically generated
Comment line
100  0  0  0  0  0            999 V2000
   31.8625  -36.2639   29.3231   O
   16.0548  -39.9334  -12.4838   O
   -0.0401  -43.0377  -16.2831   S
   -4.9250  -26.8186  -26.0363   S
   15.2983  -34.0704   14.6302   S
  -35.2715   39.3297   17.3424   C
   18.2500  -42.4553  -19.2611   C
  -43.2820   40.7094  -18.2437   N
   43.6046  -15.8750   -6.4617   S
   28.6406   19.4672   -1.3952   C
   47.6094   16.5766   44.6630   N
  -29.2906  -29.8738  -16.7949   H
    8.9405  -25.6676  -17.9306   N
   30.1339   -3.4391   16.2072   S
   -8.4995  -11.4557   34.1147   S
   40.8160   42.2015   25.6322   N
  -33.5506    2.6999    5.5586   O
   48.0672  -11.6261   27.6818   O
    6.5759   28.5537   48.9309   H
  -12.2751   13.6788  -39.9696   N
  -29.8255   28.8979   -1.1955   H
   13.9052   33.6628   41.2095   S
  -36.6182  -26.2162   -2.6585   C
   -5.3004   11.9604   39.6492   N
  -41.0199  -26.7149   42.2587   S
  -49.4149  -24.8274  -30.8798   C
    7.2093   17.4374   16.3000   N
   42.7601  -12.4299   40.2856   H
   20.1730   26.5572  -38.4553   O
   42.5806   12.4958   49.4517   S
  -10.7281    7.1939  -38.6320   O
   -9.8849  -42.1225  -24.7466   S
   20.0927   39.5165  -33.5231   S
   20.5550   37.6001  -37.9875   O
   -3.2912    6.1908  -25.8225   N
  -38.7192   44.4844  -21.4620   O
  -28.5127  -36.7962  -33.8018   C
   27.1865    1.8168   -7.6583   O
  -21.7028  -40.0445   41.0758   N
  -28.8999   32.8996  -33.9496   C
  -27.6311  -26.0069   19.3747   N
   42.0748   40.2851   41.7800   H
  -44.2304  -49.2493  -36.9804   S
  -20.3197  -35.8849    5.2216   N
   33.9578    3.2722   -4.8533   C
   20.1985    4.4910   22.6269   O
   -2.4879  -12.2463   13.5730   N
  -44.7953   44.7265   -0.7166   H
  -38.8161   45.2677  -42.8854   C
   24.1876  -25.2261  -12.1060   N
    7.2021  -39.8348   29.2443   N
   14.3183   22.2596   -2.7529   O
   23.8081   41.9765   14.4845   H
   16.9206   27.6327   44.0319   S
   44.6474  -14.5802  -39.4918   O
   -6.0544   18.9270   44.6625   O
  -41.5029  -12.6214    9.6260   S
   20.4097  -26.9204  -25.8499   C
  -42.4464  -16.3012  -10.9224   C
  -27.6290  -38.7611   20.1070   O
   46.9474   21.3389   32.9303   C
  -49.0379  -28.9493   47.5445   S
  -35.3687   49.4315    9.1998   N
  -46.0505  -38.1121   19.2401   C
  -35.4124   36.0068  -31.0398   H
  -47.6722   43.1332   17.2169   C
    5.6917  -48.0260   49.3131   S
   45.0212  -43.7743   36.1979   C
  -23.7549   24.1178    4.3547   H
  -23.2166   19.5436  -41.2825   S
  -34.2748   11.7776  -44.3800   O
  -33.8418   28.8152  -48.3247   H
   -1.2655    3.4166  -37.2549   N
   13.3734  -43.8865   14.5441   C
   -8.4091  -37.0788   26.2841   C
   28.7845  -21.6352  -37.4235   C
   46.7486    4.8791    6.7927   H
    8.6057   13.4417  -49.9090   S
  -17.2906  -18.3909   27.0483   O
   17.7078  -22.8523   -3.0585   S
  -15.1210   15.9139   47.0811   H
  -43.3739  -37.8622   44.2662   C
  -31.9027   44.0674  -24.2773   N
   44.3514   29.8348   34.5186   H
  -45.8770   46.6558  -23.0403   N
  -15.2323   12.4432   18.8686   S
   48.6021   38.7516   -4.2424   O
  -41.5183  -22.8671   24.8165   N
   12.8649   34.0280   -2.9677   O
  -13.1452  -15.4630  -38.3318   S
  -36.1684   39.6153  -10.2417   O
   25.5610   12.8073   15.4634   H
   40.9059   24.3468   15.9942   O
  -39.4463  -40.7332   -1.1843   O
   -2.0227  -26.0188   -4.1027   N
   11.1334   29.8732   25.4532   H
   -3.6845  -40.7174  -22.0667   S
   -0.8953   11.1333  -46.8357   N
  -31.6819  -48.7817  -19.9752   O
  -23.9741    7.4025  -40.7208   H
M  END
$$$$
