Generated Ligand
Programmatically generated
Comment line
100  0  0  0  0  0            999 V2000
  -11.1494  -47.2710    3.2546   S
   22.2932   37.5063   31.4769   N
   -3.1316   27.3978   22.9516   S
  -26.9296   -5.0557   -5.9716   N
    9.9742  -15.7849   24.0679   N
  -15.0266  -24.0486   41.4815   C
   17.6217  -35.8911   44.9231   C
   43.8501   19.7660   46.8701   S
   31.7648    6.6501  -18.2861   S
  -17.9647  -47.5187   17.7363   C
    4.1699  -22.5847   -9.9713   S
  -38.4338  -29.3298  -12.9725   S
   -0.0631   45.8923  -29.8752   N
   42.9176    9.3068   20.8272   H
   -4.0848   12.3469   39.0398   N
   35.9487  -35.5946   -1.0975   N
   12.3882   13.6295   41.7914   C
  -26.6062   31.1410  -46.4269   C
   25.1905   15.8194  -38.7842   N
  -32.6871  -13.6063  -15.7119   O
  -49.5263   10.2760  -42.8316   H
   -2.4607   32.6958   -1.2634   N
  -13.1204    1.1818    4.9228   C
   46.1746  -38.7252  -35.1735   C
   40.5631   39.1060  -44.0423   C
  -41.5698  -12.9317   45.3751   S
   26.0413   40.3575   32.4746   H
   -6.9201  -40.0287  -43.0562   H
  -33.8469   20.2753   13.3285   H
    2.3873   44.6085  -42.6205   H
   29.6911    3.1719  -20.5668   O
  -33.8979   14.9691   -9.4439   H
  -36.2808   27.6355   -1.6226   O
    4.6665  -10.2972   25.5278   H
   29.1063  -31.6294   16.6820   S
   16.7583  -19.4012  -46.6077   N
  -12.5107   10.0226  -20.5661   H
   -6.2947  -46.5042  -22.3158   H
   -0.5293   43.4789  -35.6485   O
   33.6694  -11.3057   13.1100   S
   33.1015   -3.8148  -40.6624   S
  -39.8162  -37.5062    2.5070   H
   23.4376  -19.6371  -27.2895   C
   -5.7640  -38.8530   39.0745   O
   31.0705  -41.8610    3.3701   O
  -40.8440   24.6793   35.9651   C
   28.8988  -48.0472    0.2677   H
  -15.1327   43.6931   41.0467   O
  -24.5131   29.4151  -45.4579   S
   30.1494   19.8191  -46.4176   S
   22.7159  -28.0051   -2.4835   H
   22.3432   38.6068   18.1971   O
  -48.4825    3.3580  -22.9411   C
   25.4993    2.1139    4.1904   H
   25.6138   30.4415  -40.0708   O
  -34.6153   23.9152  -33.8185   S
   45.7953  -24.5741   -9.2029   N
  -46.0694  -42.5113   26.0762   O
   48.2768  -42.1924   20.5518   S
   43.2019   32.0265    6.8967   S
  -29.3915   11.1663  -34.8541   O
   -0.2784   10.9179   27.1580   S
  -43.3951   40.9907  -24.1682   C
    0.1308   12.4315  -10.2017   H
   46.1233  -14.4933  -37.4583   O
   -2.5457   33.4526  -26.7750   C
   46.3337    8.1909  -40.3000   H
  -12.3348    0.2095  -48.9902   C
   47.4939   11.4660   19.7149   O
    7.9562   44.9948   33.0726   C
    9.8098   17.8523   -5.6548   C
   -5.4193  -47.2160    6.1239   O
   37.2788   30.8058  -29.1356   H
   27.3620  -45.0169  -23.9538   H
  -24.7715   47.0113   -3.8190   O
  -21.2576   44.1202  -19.5610   C
   47.7773    7.1343   36.2552   H
  -39.6613  -45.4918   48.2813   O
   32.1326   19.7984  -23.2282   C
   18.8870    0.4310   10.1543   C
   26.4432   26.6507    7.2663   H
   -9.3325   19.9549  -20.7392   S
   48.5246   -8.8894    2.0723   C
   15.5082   31.2139  -18.2719   N
  -47.5526  -24.0689  -24.7512   N
  -28.7407  -31.8092  -40.0606   O
   16.1059  -19.1444    2.0245   S
   -9.2526  -17.6639  -16.9718   O
  -17.9341  -37.9041   -9.1808   H
  -24.1454   26.3354   31.0913   N
   40.7792  -18.7379  -36.7325   S
   -1.2599   34.6609   33.9837   O
  -18.2696   12.9341   -4.1533   S
   46.1936  -18.6924  -42.1352   H
   -6.7729   32.0761   20.6863   C
   43.2139    8.9466   21.3960   N
  -15.4715    5.5418   24.1533   O
  -39.5658    8.8961  -28.1078   H
  -42.4886   16.3726   43.7864   O
   38.5224    6.6757  -12.7663   O
M  END
$$$$
