Generated Ligand
Programmatically generated
Comment line
100  0  0  0  0  0            999 V2000
   45.3999   36.1391  -33.4184   N
   33.6728   33.6730  -26.2444   C
   32.9063  -14.4955   35.1656   H
    9.9157   26.9996   28.4987   O
  -39.9026  -22.8506   49.0293   S
  -49.0839    3.1254    0.9505   H
  -12.4507   22.5472  -49.5149   H
  -27.1042  -44.5875   10.5995   S
   25.6108  -35.7536  -47.1897   S
  -31.5560   19.6839  -19.5561   N
  -34.2304  -48.1007  -42.0250   O
   40.5975  -30.2731    3.6175   O
    3.4935  -17.5631  -35.1315   C
   40.9641  -20.6058  -43.7440   H
  -19.4526   -0.7147  -14.7373   H
   44.8324  -43.9867  -41.4872   S
  -24.2177   25.2389   35.4287   O
    4.1860   35.0011  -37.0119   N
  -18.9714   49.0459   19.2966   S
   15.5522   21.5072   43.0618   O
   -0.4446  -23.3693  -11.3842   C
  -25.3660   39.1254  -12.1000   C
   -8.1689  -43.7071   44.8743   S
  -10.1275   39.0167    4.8889   H
  -21.3178   12.9353  -48.8700   H
  -12.3479   39.3337  -41.3543   S
   46.8610  -26.3914   -4.2198   H
  -23.6770  -46.3055   21.7015   H
   33.3341  -38.8674   39.6551   N
   41.5803   35.3673   29.3094   C
  -35.4782   11.0023  -12.5052   S
   48.7537  -25.5993   15.5845   S
   17.5209   45.9354  -26.6304   O
  -21.3175   -4.6090   -4.0338   O
  -31.7146  -23.6186  -26.8128   S
   46.6462   44.8326    2.8527   O
   16.1949   11.0754  -43.4197   H
    5.6338  -47.3249   42.5738   N
  -12.6704  -15.4012   42.0051   N
  -17.5172   -6.3308  -48.0005   H
   35.1158  -25.7262  -34.7678   N
  -29.9044   28.2409  -29.9796   S
  -28.6577   42.3846   30.5457   O
  -44.1939  -17.8380   13.1744   O
   14.4556   24.7043  -25.0903   O
    9.3775   43.5033   34.2945   H
   35.0604   17.4917  -12.5119   S
   41.2488  -22.6447   47.6670   S
   48.3023    0.6063   29.0986   O
   33.4001   24.7169   13.5691   O
   32.4446   48.4721   25.4121   N
  -16.4212   37.3278   11.7050   O
   39.1274   25.2034   32.9424   O
   32.8563   39.3372  -24.0524   N
   42.5806   25.2685   41.2360   C
   44.6481   10.7469   26.0530   C
  -13.6448   36.3055   -7.3569   C
  -21.8985   49.9056  -20.7230   C
  -16.5214   15.5857  -36.4016   N
  -41.3929   17.4269  -33.4041   O
  -15.3440   -2.6821  -25.6974   O
   -4.3163  -40.1304   43.5743   O
   36.6259  -41.2851   15.8686   O
   41.2819   20.6455   48.9125   C
    5.0994  -19.4278   -6.3787   N
   26.4750  -20.0665   47.3079   N
   38.3229  -10.0227  -11.7380   S
   -5.8135   41.1145    5.7507   O
  -12.4866   25.1450  -49.4722   N
  -47.8904   -8.2055   40.9542   H
   43.9841   24.2454   42.6183   O
   28.4981    6.7804  -17.3893   N
    7.2075  -36.8227   24.0623   N
   18.1537  -24.1212    1.3184   H
    6.5816    2.2611   45.3536   N
   28.6442   18.0125    7.7077   S
  -31.9053   45.1447  -28.2146   S
   28.9707   10.3427   22.0317   O
   -7.1981  -26.8988   10.0153   C
   47.6235   -1.0007  -11.5423   O
   15.2133   47.4967   11.5876   N
  -45.1405   40.7219   38.3384   C
   18.5229   30.0636   49.8507   H
   34.0493   15.1418   32.7595   N
   -4.1789   -4.1789  -42.9685   H
  -49.8728  -23.3281    5.5087   C
   40.4808   34.8460  -17.5321   S
  -22.1502   43.8019  -15.1115   O
   36.2984  -39.3205   -4.7861   S
  -30.0239   11.0358   17.5017   S
   13.1288   22.5480   30.0229   H
   35.9370   -5.5037   12.9895   N
  -21.4727   30.8657  -35.0125   O
  -46.3505  -21.5531   49.2766   S
    4.3128  -40.3401   17.7672   S
  -35.8320   10.0502  -14.6857   N
   -7.2812   -3.2782  -16.6301   O
  -11.0762  -18.9937  -37.8176   S
   -6.3783  -37.1809   -3.4372   C
   29.7422   27.3801  -15.7653   O
M  END
$$$$
