Generated Ligand
Programmatically generated
Comment line
100  0  0  0  0  0            999 V2000
   14.4764   39.1007   37.2044   N
    7.5693   26.1098   46.2425   H
   18.5527   42.3317  -46.7242   O
   34.1492   -2.5511   18.4620   C
   43.9902   15.3765  -38.7913   O
   25.0773   -2.0751  -21.2146   N
  -17.3023  -25.6869   -0.0860   C
  -25.3433   29.0071  -37.5497   N
   25.1571    5.5689  -41.7900   O
   37.1100   18.7413  -35.5328   H
   15.8737   -5.2724   47.6683   C
   34.4437  -34.7695   17.4190   C
  -42.7679   -4.6941  -32.3317   N
   32.3542    5.6249  -48.7194   S
  -32.3069  -16.6122   -1.0568   H
    7.8034   47.5844   46.0874   C
   48.8695   47.5189  -38.9265   N
   -8.6096  -21.8939   -4.5692   N
  -22.6068   22.8140  -20.9213   C
   11.1187  -36.1037    5.3861   C
  -19.7446   11.4515  -34.5763   N
   26.7866   13.9222   13.7532   S
   21.2686   33.7804  -17.6270   O
  -13.0349  -47.0168   15.9691   O
   17.4106  -44.5894  -14.4594   O
    1.2474  -20.7988  -37.2639   O
   18.8769   18.2747   26.4109   N
  -21.4589   17.3161  -43.6565   S
  -35.9511   10.9957    5.2991   S
   11.1296  -47.0851   31.0754   C
   15.9496  -10.4178    7.9671   N
    1.0829   28.5257   42.0633   N
  -36.3501   46.4022    9.4034   H
   21.5903   -6.6895   13.4281   C
    6.3989   29.8803   26.1708   C
  -44.0495   20.3275   26.7368   O
  -11.6166   39.7764  -36.7904   S
  -31.6043   28.8331   34.1632   N
  -47.0056   31.1271   -0.9226   O
   21.7665  -42.9598  -33.2454   O
   -9.9315  -19.1776    7.3583   N
   17.2377   31.1461   19.3260   C
   16.6431   24.2002   -0.9866   S
    2.2593   18.6611  -46.3804   H
    2.1735   34.7617   38.0466   H
  -23.2604  -11.4799   16.7634   C
   32.7736  -20.1567  -21.1471   H
   24.5616  -27.2728  -38.6885   O
   11.2333   45.6956  -11.1865   N
  -23.1450   38.6572  -17.3142   C
  -34.2308   24.2548  -48.1011   C
  -42.2188  -32.9191   39.9194   S
  -26.6819  -28.1641  -10.0133   C
  -41.4909   36.0171  -36.9375   S
   46.2990  -17.9498   11.0020   O
  -19.8746   22.9959  -23.9841   N
    7.8442   -9.7397   23.0898   O
   44.0733   -9.8280  -36.3482   O
  -37.9551  -42.1202  -42.7035   N
  -17.3523  -39.8255  -45.9251   O
  -15.9547    2.3004  -48.4859   C
   20.0916  -33.5369  -20.5548   N
  -36.9640  -13.7136   33.1750   O
  -18.2980   48.1963  -21.3276   S
  -16.9278  -25.3261   -0.9270   O
  -35.0668   27.2765  -45.9746   C
   -5.8561   38.2667   39.7977   O
  -34.5694   -2.3956   -5.7974   O
   24.7700  -24.0925  -36.5871   N
  -40.6467  -24.5576   24.7847   H
  -46.2843   10.2700  -40.8746   C
    4.2582   43.8666   41.9798   O
    2.3283  -11.2972   12.9498   N
  -38.9052  -21.3106   46.6115   O
    5.1397  -34.1275    3.2657   C
   28.2403   10.7750  -19.9677   S
  -10.5519  -34.9166    0.0860   O
   47.0691    1.7302  -41.8959   C
  -29.0739  -36.5876  -11.5297   S
  -26.6225    5.0772   28.5772   O
  -10.5591  -31.5945   -3.0884   H
  -14.3741   24.8895  -45.7164   C
   39.0944   37.7242    9.2869   C
  -21.0881   12.8848  -29.7534   C
    3.3569   -9.0542   28.4416   N
   13.6393  -38.4583  -34.9779   O
  -42.4265   37.5456  -39.4273   S
  -27.6543   45.0184   26.2031   C
   11.5148   -7.6961   19.0880   O
   33.0385   43.8983    2.9766   C
  -14.1193   37.8911   11.0562   S
   29.6299   12.0166   19.5016   O
  -13.2058   34.0963   14.5636   S
   -5.5172  -20.3505  -22.7813   H
   27.1906   -1.0383   -2.5814   S
  -24.1327   48.1261  -49.5530   S
  -14.8241  -21.5131   -2.4810   C
   48.6335   11.5334  -14.7851   S
   -0.0811  -37.1175   11.5021   N
   21.9601  -38.0878   -9.6752   C
M  END
$$$$
