Generated Ligand
Programmatically generated
Comment line
100  0  0  0  0  0            999 V2000
  -47.9941   30.3065    7.1104   H
   -1.5362   26.4030  -14.3478   N
   12.9711  -45.9269  -42.9788   H
  -36.4451   16.6092   16.7894   N
  -17.6445  -19.2122  -17.5741   S
   48.4356   -3.8343   29.6632   C
  -26.7436  -12.4965  -29.6198   C
  -44.4243   39.2450  -33.5872   S
   32.8529  -12.1410   29.4048   H
   15.4930   40.0944   16.5010   N
  -21.5772   -2.1369   10.3803   N
   20.5515    0.8133  -37.0356   O
   47.6245   44.4195   27.4958   N
   29.5937   44.5729  -29.0132   N
  -16.2658   25.7396    4.3582   N
    3.6544  -10.4018   31.9809   N
   17.6035  -40.6564  -17.1920   C
   -5.4408   44.1435   20.8687   C
  -38.6956   34.1050   39.3496   S
  -40.2919   20.2179    7.1410   O
   48.5320  -42.1931   48.1151   C
   44.8917  -25.5850  -23.9132   N
   -3.3119  -37.5739  -14.5654   C
  -45.2591  -10.4647  -15.6880   N
   22.3804   15.5856   13.5955   H
   -4.2842  -31.6494  -15.1130   C
   31.9515   -8.6980  -37.3794   C
   14.4444   -1.0767   22.0316   S
   26.8350   44.2151  -13.2724   C
  -12.4427   30.1571  -41.7191   O
  -36.3235    5.8459  -38.3159   O
   16.7355   41.2610   -8.7505   N
  -30.1137    4.2905  -33.2858   O
  -42.6530  -19.4508    0.9850   H
  -10.8441  -16.0459   -2.9506   N
  -19.8723   18.1747   14.0519   H
   48.7070  -42.1859   38.0693   O
   35.5792  -26.1099   20.6290   O
  -34.9769  -12.0787    2.7515   C
   17.1761   42.3140   34.7138   N
   20.2213   18.9465   19.7822   N
   24.2446  -12.8212   35.2250   H
   21.7879  -39.0291   22.3063   O
   41.3894   38.8519   42.8523   S
   15.2711  -11.7098   27.2196   S
   28.9192   36.8456  -36.6582   S
   42.4740   18.6196  -34.3246   H
   39.6819  -33.0538  -33.1865   O
   -6.4096  -15.4966   35.9603   S
   27.2809  -21.0203   26.1862   H
   17.2286    5.3851  -47.2174   O
   -7.3129   33.5993   41.4942   N
    6.2946    5.0318  -40.0186   H
   14.2987  -41.0416   39.7476   S
   -9.5164   14.0320   -8.9813   H
   40.1350  -16.5885   14.4653   H
   16.0725   14.0800   -7.4135   H
  -46.1966   -4.7783   12.5806   H
  -49.6442   22.7803   36.9824   N
   27.6415  -27.0240  -19.2332   C
  -24.2918  -17.0055  -15.6049   N
  -41.0077   -4.9932  -22.3335   O
   12.2723  -14.0254   17.4353   N
   40.9348   43.0883   19.6341   H
   10.9462   34.7784   38.0335   C
  -24.8242   13.5943    8.8686   H
  -40.4590  -15.7164  -31.7530   S
  -34.4053   10.3659   42.1780   O
   15.1029   39.4459   34.9758   C
   28.5722  -31.6622  -34.9498   S
   27.9711   19.0342   33.0993   C
  -27.4583   16.4425   15.7974   C
    3.0176  -23.9747  -31.6684   O
    7.2158   29.3699  -25.5028   S
    0.3457  -42.6858    8.9113   H
   25.1852    7.9943   47.1320   H
   -1.7034   -2.5435  -37.2780   N
    1.5468   34.6092    8.4536   N
  -48.8331  -25.5892  -22.7008   O
  -22.3854   39.5233  -29.5713   N
   21.7521  -18.2943   -6.4264   S
  -23.8789  -47.0906  -39.1574   H
  -24.7175    1.8154   20.3259   S
   -6.7624   -5.5301  -16.0391   C
  -24.8629   23.7565   -8.8773   S
   14.3803    9.3280  -45.7727   S
   30.3743   49.8365  -17.4609   O
  -40.8213  -27.8735  -10.0159   O
    4.8958   10.0846  -42.8751   S
   21.3191   15.4287   21.3493   O
  -37.8222   18.5317  -36.3938   O
    9.0920   16.9858   12.7279   H
   32.4075   36.2242   42.1549   N
  -19.0392  -23.4982   -2.5830   S
   -1.8784   -1.6396   -3.5033   C
  -34.3363  -39.5523  -47.7401   S
   24.6888   31.3910   29.9928   H
  -34.9484   24.8207  -41.5229   H
   10.6975    6.6177   18.4245   C
   13.0432   43.3144   34.1318   O
M  END
$$$$
