Generated Ligand
Programmatically generated
Comment line
100  0  0  0  0  0            999 V2000
  -17.2804   -1.3024  -28.0838   H
  -23.3025   30.8447  -14.0783   O
    1.8405    2.1451   -5.0829   N
  -17.4793  -27.9223    2.0610   N
   45.8038  -27.0010   -0.3869   S
   16.3615   48.8876  -42.5279   O
   24.9992   14.9509    4.5425   C
  -33.4570   -2.5883  -19.8444   H
   31.2872  -43.9493   19.9624   H
   14.8036  -33.0836   30.7396   N
   48.4709  -42.7273   44.8105   S
   19.7049   27.3871  -18.6056   N
    8.9830   24.7013   13.8836   O
   -5.1567   47.4706   41.1128   N
   43.0602   19.1221  -41.5051   O
   -7.3301   33.1978  -29.3302   N
   22.9630   27.4361    8.7690   O
   19.3327  -34.2257  -47.8022   S
    7.6156   41.1656  -14.3948   C
   23.4158    1.6579    4.7460   N
   42.8851    1.2492  -36.4219   N
   25.3264   21.3216  -11.6395   O
    8.7842   39.8544  -47.4445   C
   17.2526   41.3658   27.3615   C
   29.9873   45.3214   41.5358   N
   -5.4505  -49.5769   26.5696   C
    0.4418   12.6508  -49.5252   N
   -0.9794  -43.5630   12.7982   N
   -4.5026  -25.5672   18.5764   H
   -4.9400  -32.6827  -46.2286   H
   21.1454   17.7350   -3.4537   H
  -28.9177  -24.3064  -34.2385   N
  -47.9382   38.7678   38.3071   N
   11.9460  -30.3002   32.2792   C
   43.2617  -48.3703   49.8292   C
   -2.0225   35.8800   24.4535   C
  -48.6147   30.6025    3.0417   S
   14.1360  -26.8067  -17.4455   C
  -37.4835   22.1990   37.3017   H
   16.0398  -10.5243   -5.8030   O
  -24.2905  -48.4888   49.2935   H
    4.2353   29.9934   45.2499   H
   14.8107   29.9193   -1.3224   O
   22.6874   11.3891   20.7114   O
  -43.3737   -3.7224   -9.8934   O
   36.4206   14.0978  -35.1707   C
  -40.5489    7.2416  -31.4925   C
   28.5604  -22.8115   39.8524   C
  -25.2466   43.0899  -33.9666   N
  -19.7869   -4.5882   25.6756   O
   47.5010   37.9493   -0.3382   O
   45.6140   39.5977  -39.9112   S
   18.7801  -46.6898  -33.2516   N
    4.7926  -29.4297   33.8284   H
   43.1981   17.5714  -44.0103   O
  -20.1713  -12.7541    2.9107   N
    9.7277   10.5353  -26.7601   H
   -3.4342   42.4423   44.9942   C
   -5.9715   30.2264  -24.1752   C
   29.0841   48.6082  -47.1747   H
   32.0367    8.7044   13.0910   O
  -21.7213   47.3684  -26.1026   H
   14.2346  -47.2497   -7.8269   H
  -27.3316  -42.2815   26.0540   S
    4.7628   35.4600   31.0544   O
    3.9618   28.5162  -19.0711   O
   27.8164   -3.5845    0.3914   S
  -38.7092   -1.4160   25.4884   C
  -14.3330    7.3518  -40.1287   N
    6.8799  -33.1024   27.0033   O
    7.4818  -27.0333    0.0789   C
   -5.8165    8.8286  -17.3022   H
  -15.5324  -29.3822   12.6050   N
  -44.5193  -18.5609  -38.0243   H
  -37.0931  -12.7155   29.0858   S
   45.7347   22.9559  -49.5805   O
   34.0328   43.9344  -20.1249   O
  -41.3412   32.9867   24.3094   S
   -8.3829   41.2087   19.1315   H
  -21.2726   18.8623   49.7222   S
  -33.3672  -17.5695  -14.1561   N
   44.3149   17.5196  -19.2088   N
  -33.2117  -35.8475   -1.9510   C
   25.0983  -43.4068   -0.9222   H
   -5.3653  -12.0178   46.4057   O
   21.0581   -8.2734   -3.1970   C
   37.2418   -4.7143   33.8299   N
   32.6646   -5.0012  -29.3702   H
   27.4645  -37.3635    4.8519   H
   34.2585   49.4503  -25.9383   S
    5.0141  -27.9241  -31.8059   C
    7.8449   16.0577  -25.3696   O
   -0.9128    0.3196  -41.5207   S
  -40.4228  -27.9669   -6.5553   O
   21.2154  -26.5093  -48.6386   H
  -32.6783   11.0153  -39.5498   S
   48.6039   21.7285  -19.9821   O
  -48.7943   -1.4413   13.1083   S
   -2.0673   48.1299  -12.6856   O
  -20.3021  -37.8206   29.0599   O
M  END
$$$$
