Generated Ligand
Programmatically generated
Comment line
100  0  0  0  0  0            999 V2000
  -11.7335  -10.6100   41.0140   N
   -7.7092   32.2515   46.5331   N
   18.8904   24.1416  -44.8583   H
  -44.4466  -16.3367   47.5828   C
  -37.0291    0.8491   21.5324   N
  -48.1639  -37.2166    2.5148   S
  -13.7662  -10.4926   43.1542   C
  -26.3676   -0.7636  -29.0356   N
   47.5828  -46.3157   44.4969   H
   34.3129    9.6068  -39.2200   N
    3.8494  -27.8982  -18.3195   S
   22.8144   -4.7114  -37.9889   N
  -40.6744   47.6082    8.3218   S
   45.5790  -49.3051   28.8208   C
   27.8404   10.2272  -39.8840   C
  -28.9317   -3.9578   -9.9248   N
  -27.9773    0.7205   22.2365   N
   -0.8948   38.1053   -2.7939   S
   21.0745  -23.3643  -35.1379   C
  -14.5151  -24.0236   40.1995   N
    3.9750   12.3552    3.0065   C
    5.6505    1.7570   20.1527   C
   44.5566   36.1882    5.5093   N
  -44.3241  -44.7302  -15.3775   C
   41.3008   17.8313   16.8135   C
   43.6083  -32.1942  -36.1785   H
  -12.7696   24.1868   43.8426   O
  -19.9026  -24.4424   45.5851   C
  -30.4674    7.2825    5.2441   S
  -47.0716   -8.1597   14.6308   H
    0.3570  -31.6658  -15.3173   H
   39.7141  -10.2849  -49.6682   H
    0.7038  -11.7931  -23.4405   S
   -8.5203   -9.4510   -6.4793   C
  -18.3686    8.8864  -39.3920   S
  -31.0631   -7.1001  -38.4157   C
    3.5738  -18.1216  -25.4334   H
   13.3635   -1.7033  -14.7572   N
   26.1004  -44.2121   -9.0207   N
  -10.7814  -11.5373  -12.5249   N
    6.5239  -39.7176   -8.5182   O
   45.4340  -15.4068    1.4894   H
   15.1509   21.1489   -5.3315   N
   42.2257  -35.6374   14.5569   H
    4.3842   32.0608   46.5913   N
  -41.6771   38.9074   -1.0178   N
    5.3342   30.8892   24.0870   N
   35.8275  -15.2412   44.3715   N
  -12.6190  -39.2773  -38.1851   S
  -24.5230   23.3686   10.1282   O
   15.2188   24.3625  -19.7722   S
   -3.5032  -28.0957   16.9589   N
  -26.8269  -24.5193   -7.1103   O
  -46.2437  -18.0952  -11.7521   S
   40.2022  -44.5820   -9.0396   O
   37.2888  -30.5593   10.5084   C
  -25.3754   -0.7677  -25.8631   C
  -25.9155  -25.6475  -16.6458   H
   45.5517   46.5539   16.2790   N
   36.2998   34.2047   44.5134   S
   -8.7699  -33.9030  -23.8943   C
  -17.9379   40.9892    1.5641   O
    3.4858   29.2149   23.0299   H
  -42.8418  -20.9423  -40.5177   C
   22.8621   14.1650   33.4867   H
    1.2940  -48.9422   44.8010   C
   36.9311  -39.0696  -27.7266   H
   24.7632   -1.5183   23.9185   C
  -30.4502   26.9132   17.3255   H
   37.1716  -25.8963  -48.7267   N
   -2.9246   -5.9735  -42.3631   O
   38.3753  -34.7467   41.7310   S
   16.7975   40.3774   -6.6516   H
   22.5191   15.7279   49.5792   S
   48.8014   38.3061  -19.0354   S
  -37.0622  -42.3063   37.0483   C
   39.2259   44.9801   21.0410   C
   29.5117  -22.4095  -25.1663   H
    9.7272    8.0174   36.5858   O
   23.8277   40.6462  -12.4646   O
   23.5957  -30.5927    1.5872   H
   41.0380   42.1657   49.4100   C
  -29.8505   19.9512    1.1551   S
  -41.5465   -4.5197   27.3425   H
   41.0704  -48.6319  -16.1297   N
  -46.5284   20.0566   15.9260   O
  -12.5790  -22.6101  -48.4045   H
   48.2934   35.4840  -19.1009   O
   49.1910  -38.5358   23.4372   N
   10.9247   24.7234   23.8282   C
   37.7723   19.5844    6.2411   H
   21.6642  -10.7918    1.3543   S
  -23.5744  -19.6385   -5.7982   H
   31.6008    2.0191   34.3792   O
  -18.5079  -46.4039   34.0740   N
    2.3588  -30.1977  -39.1780   C
  -32.5802  -27.9046  -10.6766   C
   42.6747    0.3967   38.2290   O
  -19.7138   13.0437  -20.5537   S
  -11.8534  -29.1928    2.3951   N
M  END
$$$$
