Generated Ligand
Programmatically generated
Comment line
100  0  0  0  0  0            999 V2000
  -38.8365   35.8460   47.3928   H
  -44.6707  -15.9322   41.8520   C
  -43.5205  -40.0670  -29.3809   H
  -20.9046   16.3880   12.8038   C
   12.0711   31.6724  -43.6499   S
    8.9826  -11.4990  -34.0168   S
  -26.6964  -36.1477   14.9055   H
   16.8452   46.7916   46.1647   O
  -11.5998  -45.8040  -17.7907   S
  -17.7302  -40.8149  -48.5023   S
  -22.6536  -39.4704  -47.9554   S
  -28.0184   16.8586  -44.5087   N
  -21.7623  -24.1752  -43.2240   C
  -15.6384   25.7506  -24.6178   S
   31.4297  -11.7948    3.7224   C
  -20.0526   -9.5090   48.9176   H
  -38.1986  -10.4110   44.6697   N
  -41.0457   46.7665   41.9139   S
   10.5530   14.9310   34.3149   H
    9.0289  -25.8474    4.1002   S
   24.2848  -10.3385  -28.5148   N
   30.6069  -27.4739  -36.7698   N
   24.0665  -17.7077  -43.2635   O
   -2.1043   -5.9305   24.4115   O
   -2.2200  -31.1954    3.6862   O
   14.0531  -41.3407  -37.0944   H
   -0.3647  -11.4047   -6.1553   O
  -10.2765  -36.1438    9.1127   C
   -5.4978  -35.3718  -42.5677   N
   -6.5484  -18.8703   -7.2050   C
   13.0096   -8.3733   36.5229   S
  -40.6601   28.0704   37.3604   O
   13.5467  -39.0648  -46.0636   H
   21.8439  -42.8549  -35.6005   S
  -37.2697   -5.2274  -36.0902   S
  -43.6781   -1.8611  -45.6947   O
   29.8767  -15.5372   30.6895   O
  -12.5253   39.2370  -18.9183   H
   -4.6629  -49.0981   23.7462   N
   42.8102  -23.7429   39.0240   H
  -24.5158  -44.8493   -3.0948   S
   41.0826   27.5278  -11.8083   N
   37.0427  -31.5989   23.3013   H
  -35.3775   -7.0166   24.4342   N
   13.5322  -28.1690   33.8884   O
  -46.9045  -14.3664  -20.5494   N
  -46.7707   26.6272   37.1732   C
  -30.0144   34.6108   21.7036   S
   40.4694  -46.4432   47.5097   O
  -27.2769   37.3785  -22.2133   C
    7.6582  -45.9495   36.8985   C
   45.4422    8.2312   28.8040   O
   -5.1254   -7.5655    4.6826   O
   21.6966  -21.6744   48.8623   S
   13.1548   38.1284   18.6361   H
   16.4077    2.1767  -33.6294   O
   16.4269  -44.3445   15.6868   S
   31.0817  -20.0441   48.0889   S
    7.4361   26.7422   49.4723   H
  -28.8169  -30.0775   -8.3312   C
   13.3458   33.9636   19.0774   N
   24.9676  -31.1643   -6.4720   O
  -13.5935   17.4725  -49.0683   O
  -17.7778    0.1477   47.1559   O
    4.7319  -15.8209   43.0500   N
   -4.3111   38.4689    0.8500   C
   -0.2550   42.7739    1.4442   H
  -11.1827    2.4210  -20.2785   C
   10.7435   46.3204   30.7755   C
    7.1670   38.8232   25.5204   C
   16.1416  -13.8892   38.2552   N
   13.6950   28.3644  -26.2496   H
  -23.4706  -42.3488   13.7667   C
   44.7867   45.8612  -36.9677   O
  -42.7301   43.7955  -47.6962   H
   -4.5656   32.2106  -42.7628   C
  -40.3557   22.8521  -38.4991   S
  -23.6654  -37.1521    9.2077   H
   27.5264   31.0955   43.2415   S
   48.2992   -3.7219   20.2188   N
   44.6545   26.8018  -17.1337   S
  -20.1928    9.1057    2.3315   N
   -0.2989   -4.0272  -29.9211   H
   47.0028   21.0915    0.4859   N
   23.8356  -13.4782   -1.8234   O
   19.7251   -3.8493   48.8737   O
   11.3499   37.6426    9.9875   N
    4.3200   39.3792   12.3935   H
  -10.3551   -4.1724   34.9405   O
   47.1030  -27.4641    7.8701   H
  -24.9980   28.4004   35.9960   H
   29.4805  -28.6708  -10.9477   O
    7.9187   23.4880  -46.5229   S
   39.2202   18.5016   -0.5632   S
   37.8023    8.6306  -40.1542   H
   16.6736   10.4351   39.3386   C
   43.0804  -11.6550   43.0520   N
   45.0925  -13.9707   21.1889   O
  -44.9063   33.3616   49.5931   H
  -12.5027   31.4611   -6.6060   N
M  END
$$$$
