Generated Ligand
Programmatically generated
Comment line
100  0  0  0  0  0            999 V2000
  -11.3522    3.2168   25.8304   H
    0.1108  -25.8444   33.6736   O
   35.1992  -31.6027   27.3369   C
   12.5648   -1.0664   11.9862   H
   13.4523   40.3364   14.8944   C
   27.0769   16.6397   11.6580   C
   29.4744   41.8419   36.7921   O
    4.5285   15.3090  -49.5677   N
  -49.5842   18.3217  -23.3473   S
   43.5173    6.3280   20.0228   C
   37.1304   26.7786    9.2721   N
   12.6382   24.2137   -0.3192   H
    3.7708  -28.9221   17.2393   S
  -26.7473   27.6530  -12.2542   N
   44.3148   28.8537   36.5142   N
  -36.2046  -44.8951  -35.3824   S
   19.8447   37.5072   38.1471   N
  -10.6177   15.5497  -16.9476   S
  -14.0053    0.2168   30.7790   N
    9.7242  -21.0306  -40.9764   H
    1.8550  -42.1832   43.5749   C
  -49.5056   -0.4731   -7.2466   N
   -4.8076  -16.9905  -45.0584   C
   -7.6312   -3.3689   46.6023   H
  -47.6009  -10.6078  -44.0603   N
  -28.6200  -10.3058   33.3641   S
  -37.3387  -32.0355    9.0057   C
   35.3257  -14.2499  -26.8413   S
   -9.0214   28.0181  -26.7768   S
   15.8667   34.2365   30.5087   S
  -13.2095  -24.1045  -29.3246   H
    9.5953    5.7243  -15.9021   N
   47.5804   38.5075   -9.1353   C
  -15.8159  -17.2858   -6.2177   S
    4.6492  -23.3876    4.3731   S
  -34.3470   -7.5133   35.7284   C
   20.0269    4.0562  -25.0488   O
  -31.0530   -6.3796  -26.0427   S
   45.6555  -40.3659   10.4121   H
  -25.3647  -38.0854  -33.5573   H
    1.3738  -47.9786   33.8757   N
  -49.5389   26.3159    8.4944   S
  -28.9525   33.6525    7.5236   C
   -8.8987   40.2043    7.9216   N
   -4.2578   -6.3149  -29.1858   H
   40.8638   27.5995  -16.3064   N
  -41.7304  -25.9599   21.9261   O
  -24.7593  -45.4140   49.5500   C
   -0.8786   14.5033  -35.2538   C
   -8.6032   43.8257  -22.2758   O
  -49.0114  -16.3620   43.8420   H
   24.4711  -39.1516  -33.0908   O
   32.3268    1.6390    1.9736   C
   16.7412   20.8237  -34.7463   S
  -10.2216   22.8357  -14.1485   C
   46.7121  -16.6394  -13.2001   O
   38.5719   46.0580   -4.2130   S
   13.6928  -23.5842    8.7525   O
  -21.3361  -41.4275   28.4456   H
   40.1346  -10.2593   36.8479   O
   44.6160   41.5673   11.3187   C
  -24.6162   -7.8888   27.1988   C
   47.2048   40.8699   17.8398   C
  -21.3002   -8.0334   43.7042   O
  -28.2017  -27.5828   13.6242   H
   30.9932  -20.8291   46.2248   N
   11.1785   -8.7862    3.8720   O
  -22.4424  -33.2453   20.1120   S
   43.9330  -20.3458   46.6452   N
   24.2294  -16.4254   47.2516   H
   26.2923   41.4261  -13.6912   S
   21.4403   29.2912  -24.5562   S
  -32.3808  -27.2069  -38.6076   N
  -49.0037   30.0854  -33.1247   O
   41.7815   15.8912  -49.0976   O
   45.9805   29.1873    5.8005   N
   -3.5404   -3.9593   -9.6360   C
    8.3105   -7.3178   42.4896   H
   30.7358   -4.7962  -11.2923   O
    0.6271   28.6156  -26.1117   H
   14.9984   37.5253   30.9247   C
   24.4897   41.8726    3.6486   H
   43.1721   25.6510   36.7282   O
   34.3021   46.2604   24.1356   H
   22.5804  -14.9861   18.4712   S
   32.5080   44.7988    5.6015   O
  -44.3128  -20.5858    6.6004   N
    8.8731  -45.3120  -15.0863   S
   31.4945    1.6704  -34.2155   H
  -13.4905   44.3661  -11.8931   O
   29.5722   40.3830  -12.4439   H
   -8.1725   35.3732   -4.7241   S
   30.7657   33.8810  -48.7308   C
  -26.2730  -30.7300    2.4626   O
  -42.1536  -37.9506    8.1365   N
  -39.3373   31.0645   19.3071   S
   -0.0741   46.8126  -10.1327   H
  -39.2827  -38.0131   10.7605   H
  -16.2419   47.7400    5.6998   N
   -5.6642   46.3948   30.1959   H
M  END
$$$$
