Generated Ligand
Programmatically generated
Comment line
100  0  0  0  0  0            999 V2000
   -4.6769   38.8282  -24.0397   H
    5.0509   44.6815    3.3692   N
   34.2296  -23.1585  -36.9271   H
   18.4899  -38.9335   17.0347   S
  -18.9809  -27.7775  -30.5153   C
   21.3189   33.6275  -41.1351   N
   19.6010  -27.7531   26.8676   S
  -41.3892  -41.1914  -28.3817   S
  -40.2078  -48.3311  -18.4902   C
   29.8585  -48.8293   -1.3460   O
  -15.6065   29.8118    6.9193   N
  -23.8406   -3.0674  -21.1703   O
  -17.3941    7.6139   26.2984   O
  -30.1868   30.2097  -12.9229   O
  -26.1520   44.0851  -29.9636   N
  -12.8534   38.7150   34.5680   C
  -40.3647  -22.9611   20.5045   N
   24.2527   27.9653  -30.9260   H
   25.3839   17.7275  -21.6604   H
   44.5381   37.4093  -30.0446   C
   20.3944    6.3325   -2.6495   N
   39.1283   27.2435  -18.6569   H
  -38.2096   42.7442   21.7791   S
  -44.4023   33.9064   12.0970   H
  -24.4941   27.3454   13.1348   C
    1.1763   13.3745   47.4067   N
  -44.8561   16.1518  -49.2616   S
  -10.2047  -49.2786  -20.0295   C
   -9.9243   15.6450  -41.8398   C
   40.9340   37.7050  -49.1086   O
   26.9343   25.1500  -25.3292   N
   27.8336  -32.2926    3.4536   H
   32.2852   14.3159  -10.3475   O
   -2.0871   13.0050   48.3297   N
  -26.5517  -43.1819  -14.8421   N
  -25.3216  -46.7434  -36.4676   N
   47.5632  -28.6551  -21.6277   H
   13.7339    7.5187   45.8718   N
  -15.7990   49.3167  -11.9883   S
   14.8503  -42.0767  -41.6714   C
  -39.2315  -38.9332  -45.1521   S
   25.7313   17.5754  -40.9642   H
   -2.5720   46.6706  -20.5570   H
  -23.4561  -48.2030   19.7959   H
  -22.2644  -30.6205  -16.1671   S
   35.9206    7.4973  -38.4322   C
  -15.6039   -8.2729  -36.6754   H
  -31.8413  -30.3045  -44.6374   S
  -17.0270   40.0938   17.9061   S
  -25.9001  -34.5913   46.6113   C
  -22.7242   28.8545   38.1628   H
    6.1759  -48.3981  -32.0035   N
   24.4132   47.1713  -49.7373   H
  -20.7220   49.1620  -20.9801   N
  -20.6643   30.9421   -8.0963   N
   30.4672   25.8023   26.8184   C
   30.8456  -47.4085   37.0023   H
   42.3068  -40.1567   23.2213   O
   39.5953  -38.5137  -28.7887   S
  -44.9849    0.7439   -3.4378   S
   44.8037   18.0820  -29.3220   H
   47.6101  -11.5288   49.3924   C
   17.3807    6.4483   45.3632   C
   24.6206   37.6745  -37.6722   S
  -12.9124   45.4746  -45.9797   H
   43.1946   -9.7370  -25.8932   O
  -38.7875   12.3959  -17.6451   S
   -1.3697    3.9579   33.8581   N
   -0.2134  -25.0438   16.0004   N
   36.8168   15.4855  -21.0325   C
   29.6171   25.6241   28.8626   S
  -24.5573   11.1767  -29.4168   C
    0.4937    0.0568   12.8600   C
   44.3250  -20.0875  -41.5717   C
   33.8450   32.2251  -38.7541   C
  -40.9640   28.4588  -47.1113   S
   36.8750  -23.6243  -44.5876   S
  -40.0126  -27.9287   12.2007   S
   23.9820   42.2580   37.9299   S
  -32.1251   -6.3533  -24.4888   C
   32.4680  -47.5183  -30.6635   H
   -0.5716   24.2313   31.2281   H
  -29.9660  -49.4221  -18.9690   N
  -34.3479   34.0138   31.7511   N
   -1.9494  -27.4342  -45.9824   O
  -21.3301   -0.8292   33.1407   H
   40.5048   21.5502  -37.4567   N
    0.9778   40.8483   22.2415   H
  -28.1509  -47.3955    4.8403   O
  -10.4226  -26.0826   44.1731   C
   14.5405  -48.5654  -46.8523   S
   25.0703  -27.7760   -2.6264   O
  -47.9745   38.3328  -25.9925   N
  -35.0277  -48.0756  -20.5155   O
   13.2264   -2.3618   40.4364   C
   32.6045   47.6523    6.7781   N
    8.5161   -5.8731   33.6843   H
  -24.8137   25.3017   20.8418   O
   45.1222   36.9981   14.8640   N
  -48.3329    7.2444  -24.0364   O
M  END
$$$$
