Generated Ligand
Programmatically generated
Comment line
100  0  0  0  0  0            999 V2000
  -41.8948  -40.1034  -11.8111   H
  -31.9601  -49.4331   48.1243   H
   -6.4467   -8.5539   19.0205   S
   38.0859   44.4036   11.0485   S
    7.5767   33.1352   -6.5146   S
   48.6751    5.3729   -0.5631   S
  -39.4698  -48.5193  -39.9064   N
  -38.5780   -0.6501    3.0878   S
    6.7641   34.1020  -48.4110   H
  -28.2864   25.5423   20.3683   O
   48.8586   49.4988   17.7462   C
  -27.5091  -18.3136  -26.1610   O
    4.0063  -33.9911  -28.3438   N
   31.3983    3.2455   29.8267   C
  -12.0916   46.6813   40.3645   O
  -35.8346   28.3398   28.6230   C
    6.3038  -11.0371  -28.9597   H
   26.7786   19.9682  -45.5395   O
   -9.6302  -15.1980    6.9281   O
  -17.1579  -11.6253    2.2997   C
  -28.4582   37.4622  -15.5255   N
  -24.5755   29.1251   36.4893   O
  -22.7973   21.5661  -35.5793   S
   11.3281   -0.4258  -28.9894   S
   18.3389   46.0124   -2.3096   N
  -27.9666   -2.4319   -2.0481   C
  -42.2488  -41.6400   46.0501   H
   34.1848  -26.0216  -30.2202   O
  -28.3681  -25.7340   -8.8446   O
   -5.3948  -15.2699   21.3302   C
    9.7399    0.6262  -36.1875   C
  -24.8064    0.6234   25.4918   C
    5.5703   -4.5703   -3.4438   H
  -28.3623  -13.3844   35.9989   O
   -0.9303    9.1516   17.6581   C
  -15.4789   -2.8115  -34.1867   H
   11.1026  -25.2713    6.3125   C
   32.1060   11.9870   13.6482   N
  -43.6091    6.4014   23.2821   S
   11.3684   38.5118   25.5374   S
    7.2830  -29.0678   17.7782   C
   26.7240  -49.2098  -49.6721   C
   32.7715    7.9255   27.6484   C
  -17.2470   21.7071   -0.2304   S
   18.9161   30.2711  -38.3680   N
    5.0847  -35.4429  -15.9362   H
   -2.0929  -24.2236  -26.0285   H
    5.8887  -27.5978  -48.1878   H
   29.2642    4.8741  -25.6257   N
  -37.7061  -21.6415   28.5373   O
  -43.9678   18.4440   37.9159   S
   44.6509  -11.3984   28.3624   O
   33.3776   27.7865  -31.0720   N
  -36.0595    5.5440  -37.8131   N
  -24.9669   23.6122  -11.7795   C
    4.8360  -27.5578    6.0850   O
   29.6154   23.2474  -28.3794   S
   -0.5256  -46.3265  -47.9527   C
   -2.4641  -36.5075   37.0332   S
   35.9088   -6.1151  -27.0320   O
   -9.3933  -24.7311  -37.5207   O
    7.3094  -41.5426   -3.3792   S
  -33.2471   38.6171   35.0433   S
   14.9689   22.0528  -27.1905   H
  -25.5613   -9.4428    9.8276   H
   19.6519  -24.2237  -45.7336   H
  -30.0472   15.7800   21.1001   O
   30.3281   23.5643   -6.5131   O
  -36.4428   20.8605  -48.0126   N
    9.5589   48.6506   16.1475   C
  -21.1116   20.1912  -22.5811   S
   29.2744   16.9235   28.8268   S
   18.2311   -7.7077  -47.9713   C
    0.9126    1.4251  -35.4873   H
  -19.0299   23.5066   26.6743   H
   39.7479   -5.8449   13.3220   S
   39.6325  -10.0693  -15.7662   S
   47.2587   42.3740   29.0177   N
   20.4907   13.4950   15.5859   C
   -0.8955   47.4710    6.1330   C
  -11.8299    5.6658   40.8820   O
    8.3578   19.2830  -40.3112   N
   16.3174  -21.1876  -18.0090   H
   26.0484   46.9043   12.1102   N
   11.9857  -26.3797   47.6327   H
  -17.5145   28.5945   -9.4481   S
   30.0038   15.2569   33.1258   S
    6.3973   48.7531    3.8338   H
   27.2433   37.1182  -26.0429   S
  -41.9526  -38.0021  -28.5481   C
  -15.3221   48.7402   13.1046   O
  -12.5101   49.1157  -43.5755   S
   22.4409   39.2538  -12.1598   N
    4.6330  -21.2658   38.5902   S
   26.8940   35.3281   19.6095   O
   41.8106   32.7718  -49.7096   S
  -45.8101   26.1833   10.0707   C
  -48.9679   16.4761  -36.1246   O
   30.9642  -12.5206   17.6170   H
   37.2205  -30.8397  -33.6643   O
M  END
$$$$
