Generated Ligand
Programmatically generated
Comment line
100  0  0  0  0  0            999 V2000
  -44.0928    3.0465   11.0923   H
  -12.3365  -47.8158   -4.6083   O
  -37.2837  -49.9477   -1.0608   H
   -9.0471   -9.2731   40.7608   C
  -38.5037  -13.9119  -27.1486   N
    0.7105   23.9293   -3.2981   S
   26.6532   26.7044   40.8327   S
  -34.7962   42.2723   26.5089   C
   -2.5687  -21.6867  -15.3579   C
   31.2215  -12.6768   -1.1887   N
  -12.9388    3.5009  -28.5591   O
   49.8343  -11.5762    8.4718   H
    0.8004   40.2413  -38.6590   C
  -13.0897    3.0669    3.1514   H
   36.0314  -19.3476   24.5461   H
   20.6302   36.2915   49.1170   H
  -12.2676  -25.2459    6.1174   H
   12.0577   -3.3835  -41.5951   C
   15.3742   24.3476  -30.7923   O
  -43.2731   49.8027  -24.6754   O
   29.5008  -23.6125   38.4289   S
   18.3217  -44.1212   48.5199   H
  -11.2581  -22.6716    2.5441   C
  -47.9602  -26.2803    9.4444   N
  -48.0823  -42.4542  -17.2180   O
  -20.3571  -25.4187  -28.1005   S
   -5.8897  -29.0314   46.5790   S
   30.2530  -24.2287   -2.3160   H
  -44.9633   36.3911    3.7794   S
   20.3754  -25.1317   -1.4379   N
    9.4448   48.3168   49.0021   O
   -0.1149  -16.1212   36.4580   C
  -43.2309   48.7893    7.7741   N
  -26.0895   45.2716    9.9301   C
   -6.7219  -19.8587  -38.2952   N
  -23.5298   29.8265    9.8992   N
   29.9515   26.2533  -29.6780   H
  -14.0562  -31.5949    1.8289   H
    6.7001   12.7026   35.7029   N
  -40.9792   29.9554   21.4852   O
  -22.5747  -15.0572   22.3895   C
    6.3575  -28.0646   33.4537   C
  -34.4723   24.7719  -25.8422   H
  -38.9267    3.5214   40.2430   H
   29.5748  -33.0427  -43.2993   C
   -5.2038   25.3046  -40.0628   C
   41.0714   -3.2987   19.7111   C
  -12.7471   33.9479   26.4602   C
  -11.6173   38.3012   40.7985   S
  -11.7871  -32.7921  -27.3710   N
  -21.2293   31.7907   26.3841   S
  -10.8127  -27.7059  -30.1933   C
  -31.9244  -29.6063  -39.1107   N
   -9.5204   32.8155  -41.8913   C
   -8.1637    0.4349   43.4006   O
   29.4798   29.6042   10.7296   O
   43.4546  -46.9906   -2.1423   S
    1.1938   30.3054    8.2026   C
   -5.5837  -13.7327    2.5289   C
  -10.9839   -4.1796  -16.6717   N
   37.3274   21.6814   23.1251   S
   12.2894   47.0187   12.1937   S
   47.9700  -36.3227  -28.8352   O
  -33.8313   38.5373  -31.0337   C
   12.4919   33.7500   38.4191   C
  -19.5365   -9.1846   49.7913   C
  -43.1254  -43.2359   32.4970   N
    3.7156  -32.9662   43.2714   S
   14.9494   42.0749   39.6437   O
  -42.3278  -36.8843   27.4575   S
   31.0218  -29.3509   31.7259   O
   44.7899   30.2025    2.5706   S
   24.1087   11.4762   12.2677   O
   -7.5126   42.3950   35.9770   C
  -48.1776  -43.6373   42.8994   C
  -47.5566   38.8053  -46.3984   C
   17.6558  -27.0698  -33.5242   C
   32.5384  -32.4842   36.5857   C
    8.0953  -10.3560   42.9751   N
  -38.9761  -37.6142    5.1592   C
   19.3494  -10.7723  -36.3088   C
   22.6801   43.2287  -27.5390   O
   26.6424   35.5338   41.3874   S
  -39.7564    1.1423   49.2485   N
  -26.3211   23.9679   41.2583   C
    3.0594   31.7329   45.7028   C
    0.1337    0.3651  -33.1784   C
   -9.0812  -38.9192  -19.9531   O
  -47.8866   16.8655   36.1649   S
   15.9450   39.8893  -17.5932   N
   -5.0763    1.6678  -38.2559   H
   49.8590   17.0497  -38.4481   O
   -2.8565   24.4856   32.8196   H
   28.2955   49.4028  -14.3493   H
  -30.1638   15.5938  -14.6144   N
  -33.5513   12.8318   26.0210   S
  -24.1592    8.2707   38.3689   N
  -36.4273  -13.4422   -0.8488   O
  -30.3643  -11.7821   47.8983   N
   -0.3795   -7.8008   39.6863   H
M  END
$$$$
