Generated Ligand
Programmatically generated
Comment line
100  0  0  0  0  0            999 V2000
   39.2167  -31.7773   23.0030   C
   30.0011  -17.5648   26.3035   N
   49.8807  -13.0097   35.6660   S
  -17.9467  -14.4148  -37.8837   C
   40.2341   40.2374  -17.3830   O
  -18.6449  -37.9807  -49.9885   O
   18.8217    9.1611   12.3261   O
  -20.3042  -37.4730   -4.5448   H
   42.5507  -33.9346    6.6608   N
   12.8630  -35.3495    8.5558   O
  -24.9575  -29.8332   23.5304   N
   -8.8774   41.1944  -49.2211   S
   33.2673   23.0957    1.1958   H
   13.2909   -9.3841  -20.6911   S
  -45.1932   32.6579   47.1500   N
  -37.0585  -35.7973   24.0522   C
    2.7798   14.1276   10.2698   H
  -33.2700  -16.2945    6.9189   O
   44.6009   17.1292   38.7808   H
   41.3933  -34.3132   20.4720   S
    8.0699  -44.4716    7.5583   S
   47.4854  -19.2100  -21.5968   S
    1.5000   29.3131   22.5521   O
   23.1088   30.3699   49.0210   O
   19.5636   39.9251   21.9530   S
  -39.3332  -38.1246   -6.0082   C
    5.8331  -24.9696  -29.8286   C
  -12.2032   34.7478   27.5349   S
  -41.9849    9.5150   39.2888   N
   24.0473  -28.6141   -5.4928   C
  -32.6447   43.1153   45.7751   S
   19.4491   -9.3196   32.4807   H
    0.5914    5.1998   23.8061   N
   46.6186   30.3035  -36.7130   O
   12.2098    2.2702  -37.1422   H
   29.1153   35.0074  -34.6739   N
   48.2671   13.7748  -49.3764   C
   29.8575   46.7962  -33.1179   S
  -24.6827  -49.3197   43.4427   C
   39.3058  -26.4423   47.3617   S
   13.8732   49.3303  -36.6236   O
   38.7092  -15.8006  -45.7642   N
   43.8867   39.6698  -21.8618   N
   37.8917   43.8091    3.0528   S
   -4.4652  -29.1434   19.4669   S
   12.3152    1.9457   34.0252   N
  -33.5015   -5.0791  -38.3176   C
   40.4978   17.3435    9.2538   N
  -32.1875   39.1111  -23.9321   N
    0.5682  -41.6451    4.9597   H
   35.3084  -43.3650   23.7011   O
  -11.8590  -47.2962   17.1934   O
  -35.6427  -37.9756  -45.2961   N
  -14.2169   46.9319  -17.7469   N
  -22.5435    8.0282   -4.5892   S
   11.5536   36.3966   41.1548   H
  -47.2685   25.2681   19.1236   S
  -27.1574    9.3377  -31.7159   O
   -7.4148  -43.4564   -4.7882   S
  -31.3985   25.8371    9.7830   O
   37.5875  -32.7735  -32.9146   O
  -14.1169   48.5956  -42.7561   C
  -39.6912  -35.2090  -31.2633   N
  -17.1523   13.8127  -32.0061   S
   30.2803   42.0419  -14.8198   O
   48.7149  -19.2131  -14.7663   S
   16.1540   26.4903  -28.6299   C
    9.9209  -18.8626   19.3666   N
   44.9593  -22.9434    3.6088   O
  -42.2356   18.2301   26.3873   O
   36.7987   17.5968  -49.1662   H
  -27.2024   -5.1401   49.7609   S
   15.0312   47.2733   14.5773   N
  -41.2531  -29.1787   17.4923   H
   34.7780    0.7607  -48.9754   N
  -24.5833   13.5394  -43.0908   C
   48.3073  -14.9962  -24.3661   S
   18.6141   17.7071  -47.4861   C
   19.6428   -6.2800    1.0826   C
   13.4370   43.5618    0.3182   S
   40.5322    6.8064  -28.7077   H
   -0.0879  -13.5907  -19.6867   H
  -39.5279   17.3994  -18.8134   C
  -35.2299   49.6315  -44.3878   H
   41.8998   -8.2241  -35.4553   C
    6.0986  -21.8327  -47.9175   H
  -40.9586    3.8122  -45.9269   S
    3.7143  -18.4139    8.0871   S
  -46.5401   25.4681   22.8202   S
  -41.1834   35.5783  -42.1531   S
   48.2753   10.2219   17.0617   S
  -30.6713   15.2867  -43.8019   H
    5.9114  -46.0195    6.5537   O
   -5.6606   26.8054   17.2554   O
   41.0553  -36.6179   30.7755   N
    2.9743  -30.5655   38.3508   H
   10.0863   23.0567   49.9675   C
   12.9960   26.1232   -9.5022   O
    7.6978  -10.3770   -3.5770   H
   23.0424  -34.0570  -43.4343   S
M  END
$$$$
