Generated Ligand
Programmatically generated
Comment line
100  0  0  0  0  0            999 V2000
   19.5769   29.8575   27.8508   H
   -9.9009   34.7018   36.1369   N
   12.4487    2.7219   22.4330   C
   43.5675   26.3767  -11.1043   O
   38.2526    1.4658   30.3511   C
   -0.5802  -45.7741   25.9068   S
  -27.3683  -21.4605  -20.6746   C
   23.3049   -8.0526  -10.9214   H
   -2.1486   -3.1461   41.9028   S
  -46.1333  -22.9929   11.3028   H
   32.8795   13.1794  -10.2395   N
   27.0246  -40.8481   14.3269   O
   47.4355   -2.2513   41.6482   S
  -39.2212   22.7141    3.1238   O
   21.7013   46.2941  -24.3167   N
   11.1391    9.2185    4.7612   C
   -4.5630  -49.2012   20.4031   C
  -10.9840  -20.1362  -39.9117   O
   -2.6843   -3.7830   -0.4575   C
   29.9124   29.1943    5.7483   C
   29.9411   -0.0368   -7.5455   N
   25.0908   22.4542   34.8083   C
   24.4339   19.3560   -6.8417   C
   26.3941   -2.7190   11.0436   S
  -30.4877  -42.6996   -7.1438   H
  -45.6046  -13.9048  -25.8295   C
   34.5343  -31.1059   -8.1649   N
  -22.5443   -7.3115   36.3479   O
    9.0095  -13.9109  -49.8521   S
   23.1844   -8.4801   41.1667   O
    7.3949  -49.7613    4.1816   O
  -40.5669  -11.5998   -9.7704   S
   44.2213   13.3781   24.4648   C
    3.6716   36.7445   34.5373   S
   -9.4322   -8.4580  -27.9631   S
   44.7303   -0.3711   -7.0755   S
    2.7535   -3.6548   -0.2755   H
   49.6318  -11.1943  -30.8825   H
   31.1341   27.9130    6.2760   C
  -31.0136  -25.9529   41.9163   C
   10.0401  -36.6277   -5.6085   N
   -6.9750  -43.7152  -40.1930   N
  -47.2560    9.8012   16.1407   S
  -20.5115  -49.0719   -6.8727   S
   17.5286   38.9836    3.1038   H
   36.6223   47.6139  -12.3278   H
  -45.7505  -45.0530   -4.8606   O
  -37.7392   45.2789   44.5115   O
  -24.7982  -11.1988  -13.3775   N
  -40.7449   37.5045  -22.2881   C
   11.4664   27.1493  -29.4933   C
  -35.7297  -34.1088    0.0634   H
   -2.3848  -29.1382    0.0449   S
   20.8583  -43.5353   40.5626   C
   31.0504   32.0256   -9.1279   H
   33.1927  -22.2565  -33.7667   S
   37.4680  -26.0127   35.9710   N
   24.9276   23.1134  -49.2248   S
   32.2294  -36.1626    6.7257   O
   49.9907   48.7822   21.3480   N
  -24.0079   38.1479    6.8839   H
   -8.0663   31.0573    4.0352   O
   39.3494  -12.4047   -0.1001   S
    4.5545  -40.4042   11.6736   C
  -38.3150   49.5001   21.9605   H
  -33.5426  -24.6629  -10.0892   O
   47.2562   32.0667  -13.5826   N
   31.9906   47.1175   38.0567   S
   -3.6730   21.4857  -23.5673   O
   35.0171  -34.5484  -14.4128   O
   -7.2695  -14.6578  -44.9108   C
   41.5025   49.8217  -45.8273   N
    4.4420  -21.3986   20.5683   H
   31.2464    1.3550  -25.5642   S
   44.5937  -21.9587  -19.6040   C
  -13.5077   47.8987  -23.2833   H
   23.5574   -6.3844  -29.2305   S
   34.6008    5.1282   40.5508   H
  -13.2111   32.5187   49.2837   C
    3.2685   38.6451  -43.5418   O
   24.9791   22.1635   17.8676   S
  -39.7100  -11.5117  -45.7458   S
  -40.8846   -3.0077   42.0668   C
  -36.4743  -43.2889   13.3828   C
   26.0654   46.9133   12.3157   H
  -22.4287   41.5000   10.3884   S
  -47.8594   25.4685  -32.7665   H
  -20.9136  -16.0568  -37.2427   O
  -23.2439   32.1170  -16.9394   N
   30.1527  -32.7409   34.6970   C
   18.4634  -15.6113   -1.6160   H
   44.9903  -49.4854   -6.8185   H
   48.4133  -48.4777   44.2352   H
   26.0824   -1.3066   40.7272   S
  -15.2420   19.6192  -31.6566   N
   37.5023   29.5487  -35.8622   C
   40.9644  -14.1186  -43.0643   H
   27.7006   26.7714   -1.5622   C
   43.1669    0.7404   28.9388   C
   10.5504  -36.1237  -22.3877   C
M  END
$$$$
