Generated Ligand
Programmatically generated
Comment line
100  0  0  0  0  0            999 V2000
  -11.7174   42.6566   47.6760   S
   31.8044   10.2622  -31.0823   S
  -33.3142   42.1741  -25.9189   C
   38.5282   18.0707   27.2747   H
   -6.4403   -7.0598  -44.4606   N
   15.9623   20.6839   21.0074   H
   48.9743   -7.2140  -34.9687   H
   -9.8565   21.4582  -15.1478   N
   -1.9811  -29.1680  -38.4232   O
   20.7663    0.4584  -15.4527   N
   28.4689  -40.9695  -36.2586   C
   30.2402  -19.0194  -13.5626   H
   -2.5602   38.4439  -26.6870   H
   38.7494  -10.0926   29.1152   O
  -46.8400  -36.3787  -39.9532   N
    0.7322   20.6345  -28.6357   O
   10.3151   -2.9595   -0.9152   S
   -7.3456  -10.1791   34.4322   N
  -36.9884  -15.9031   12.8517   N
  -28.1846   25.9554   41.8220   H
   -7.3307  -43.9758  -31.0171   S
   -0.6226   -8.0582   -8.0614   H
  -37.6062   35.0833   -8.3013   S
   -9.6424   47.5180    4.1895   O
   12.5057  -18.9346   18.4351   H
  -27.5201   15.7385   16.6192   H
  -40.8739   13.1053   -3.1044   O
   30.4285   16.0993   16.0955   N
  -23.8790  -30.9900   31.3867   H
  -21.5378  -14.5735    5.8823   C
   -0.3655  -28.4841   -8.1919   H
   41.2688   11.3396  -34.1598   O
    7.8928  -34.3023   32.9252   N
   -0.1857   13.3432   38.8164   N
   24.4280  -49.5840    8.1649   O
   20.7601  -30.6313  -17.4347   O
  -15.5462  -11.2470  -37.8154   N
  -23.9857  -16.6934   42.9952   C
   30.9331  -48.8443   49.7516   C
   -4.7511  -30.2011   19.9397   C
   23.6117   30.2535    4.4122   H
  -22.5654  -16.9537  -31.8199   N
   -3.7427   -3.3536  -10.8210   N
   28.1473   10.2088   41.4345   S
   40.6391   -6.3071   18.7298   H
   16.4952  -18.2324  -23.1674   C
   34.7554  -27.8029   -1.1701   C
   43.6286   21.7560  -40.1992   H
   16.1113    6.4301   24.0494   O
    3.3914    1.9339   33.7162   O
   -6.9484  -39.7733   22.7484   C
  -11.2950    1.6070  -32.5349   O
   39.0401  -46.0195  -23.1729   O
  -31.9654   18.4893   -0.0992   S
   25.4844    6.6000  -35.0683   O
   -3.8140  -33.1682    7.7909   C
  -33.3312   41.8286  -31.0606   N
  -21.7226  -14.0015  -19.1197   S
    1.6729  -20.7246   -5.1074   O
  -35.8698   35.0378  -20.4971   C
   -9.2589  -45.3022   43.7384   C
    2.6503   41.7568   39.1732   H
  -31.9288  -47.0282   43.3219   S
   43.2098   22.9907   32.5230   S
  -10.2884  -11.9749  -41.4309   S
   20.1583   -4.9586  -19.9901   C
   30.4988   11.9261   18.8297   C
   45.4442  -12.4002  -19.1859   N
  -32.9982   23.4637  -35.9373   S
  -25.1247    0.0587  -24.1672   H
   34.6690   30.5969   16.3927   O
  -30.7638   25.8893  -38.0172   H
  -41.1230  -44.2719   -5.5573   O
  -38.8522   31.5557   26.8693   N
  -15.3017   43.1762   44.1796   C
  -24.1273  -34.8777  -26.7240   O
  -16.8822  -24.4325  -32.9557   O
  -49.9789  -13.4187  -36.7690   O
  -41.1885  -35.4844   41.8514   H
  -42.6589   34.7141   -9.1152   S
  -32.5648    3.9042    9.2611   S
  -35.0493   -5.3199  -44.7097   N
  -21.5852   29.6678   27.8831   N
   29.4289   -7.3460  -33.7490   S
  -42.2959  -35.3401  -13.5189   O
   47.4575    3.9341  -28.4633   O
  -11.6981   48.2667    2.6707   H
  -28.7004  -31.7032   11.8662   C
  -30.3128    2.0510  -48.1564   C
   17.6624   36.3917  -22.6814   S
    2.9050   46.8308   31.4767   H
    8.7973  -38.3358  -29.9045   N
    0.9300   28.9562   -9.0917   S
   10.1209   11.8704   29.4733   C
    6.9119   45.0309   30.3027   O
  -45.5885  -48.5066  -32.4371   N
  -42.0127   19.6275   16.5553   S
   23.2813   12.8266   -3.3265   S
    2.8248   -8.4362   28.1954   S
  -10.1690   40.7749  -33.3871   H
M  END
$$$$
