Generated Ligand
Programmatically generated
Comment line
100  0  0  0  0  0            999 V2000
  -32.5629   42.0508   13.8709   H
  -41.7575   -3.3847   -7.0109   O
  -47.4484  -49.4767    0.4528   C
   45.2952    3.3395  -29.1702   H
  -44.5781  -27.8677  -43.8986   C
  -46.2914  -45.7718   43.2989   S
   35.0619   -4.9082  -12.7179   S
   36.2552   33.4665  -49.5612   H
  -13.0251    1.8202  -31.8461   O
  -44.0279   11.4239   48.5884   S
   29.7913   12.9548   43.0340   O
   45.7348  -16.0211    5.5826   C
   37.0429   49.0562  -30.8025   S
   27.7689   -7.6997  -33.6309   N
   36.1046   -3.0550   -8.4490   S
   27.8728    9.3944   24.0734   H
   17.2992   35.0509  -47.5602   H
  -17.1388  -39.8017   13.8256   C
   23.2700    0.8834  -16.7739   C
  -46.0806  -14.3632  -19.2881   C
  -30.9702    9.7393   20.9944   C
  -40.4652    8.4424   18.0674   C
   22.9946   22.7533   21.6745   C
   28.7869   19.1998   -4.5473   C
  -28.7521   15.5284   49.5168   C
  -19.5671  -28.2680    5.7379   S
   -6.8853   13.5467   -3.0104   S
  -13.3598  -30.9296   15.5150   O
  -30.9127    5.0651  -48.3216   C
   48.0007   43.9165  -39.3072   H
  -19.7339  -40.5890  -31.2492   N
   31.8254  -19.7951   46.7026   N
    2.2110  -45.8065    1.5549   S
  -43.9746   14.7558  -21.8502   C
  -30.2155    4.0707    1.3386   S
   36.3527   36.2143   49.3986   O
  -14.5869   17.2538   22.4666   N
  -47.4335   42.9086  -20.2414   N
    7.5053   -2.6380   23.6980   S
  -32.4021  -48.1586  -28.3301   O
  -10.7508  -15.9515   -7.3975   S
   18.1345   33.8945   35.5252   C
   42.5731   40.6016  -37.1905   O
   20.4578  -10.8222  -25.8116   N
   14.5311  -36.2292  -48.0991   H
   14.9414   35.4003   -4.0789   C
    1.2501  -48.9020  -35.1913   H
    6.3142  -29.1500   23.8492   S
  -39.9320   19.0406   22.8354   H
   20.1273   42.9948   11.3703   H
  -12.8107    6.0460   18.2705   S
  -20.2142  -20.2658   43.1206   H
   29.4610   16.1323  -14.9015   S
   22.5432    3.1676   25.5334   S
  -17.7922   26.4988   -2.1582   S
  -27.5839   34.7249   47.7247   C
   -5.2863   29.1661  -38.8269   H
   19.4234    5.6883   10.5859   S
   -8.6258   24.6822  -16.3750   S
  -43.8400   -0.1769    7.6265   S
   12.4310    7.5863  -12.3959   H
    7.5029  -30.9973    3.0638   C
    6.8385   39.7190   21.5755   S
  -39.2806    5.1837   38.8331   S
   49.5239  -35.4790  -17.6625   N
  -19.4592   32.7888   14.3388   O
   46.3119   38.0105  -39.2320   C
   41.0104   11.6070  -15.8255   N
  -36.1086  -32.7764  -32.0432   O
  -26.2386  -41.3991   -0.7686   N
  -33.7334    8.6400  -18.8902   C
   32.4252  -33.6810   31.8106   H
  -23.1811  -20.2491    0.9575   S
  -19.2303  -31.6334  -16.0285   O
    0.7720  -33.1925   29.5361   O
   -9.5611   -6.5770   30.8802   H
  -38.6585  -41.2524   16.1311   N
   -6.4205   39.6243   -1.5253   S
   25.2139   -1.2870   22.6318   C
   43.7602   14.6112   44.3722   O
   -9.0652   34.7905  -23.1089   S
   26.9305  -45.5868  -22.8530   S
   -5.6386   -4.9487   34.5065   O
  -26.9652   45.7280   35.9734   N
  -47.0456   33.9738    3.7062   H
   33.8420   -2.9103  -14.4274   H
   22.9987    0.8677  -36.7164   C
  -14.9866   13.1465  -15.3821   H
  -21.8911    5.4886   15.7364   S
  -29.6203  -44.1404   17.8158   C
   24.7890   22.5625  -33.6621   O
    1.9682    6.8937   -6.6003   N
  -38.3880   43.4544  -10.4064   O
  -32.5811   23.9622   -1.2979   C
  -35.7782   17.7100  -42.9135   O
    3.8840   30.8100   -2.3667   N
   -1.3741   -7.0455    7.4108   H
   44.9782   -5.2265  -29.8814   S
  -45.5296   26.4543   36.2744   S
   40.1017  -17.8058    6.5090   N
M  END
$$$$
