Generated Ligand
Programmatically generated
Comment line
100  0  0  0  0  0            999 V2000
   42.1187   -5.6536   49.6373   C
   25.0296   -9.8540   46.1082   H
  -22.8059    8.1004  -36.3690   S
  -14.9587  -14.7051   24.8216   N
   45.0651   -5.6582   -9.6521   O
   14.1068   26.4913   21.3400   O
   32.7340    9.1814   42.7688   H
   -7.7078   -7.5054    0.4189   H
   -3.9330   29.4964  -31.8002   H
   38.3099  -38.5976   31.4188   N
    2.0519   10.0875   43.5528   O
  -14.8356   29.0157   25.8298   C
   -6.6207   -9.9976   41.2922   S
  -12.6157   33.6311  -10.1491   N
  -16.2668  -12.1246   -9.0600   O
  -37.2469   29.5736    5.6130   C
    1.9494   29.4017  -41.5071   S
  -22.5242   -1.7087   15.6479   C
  -46.7233  -43.9397  -43.9199   C
  -26.2290    0.0822   36.1203   N
  -37.8811    2.7424  -41.9344   C
    6.0958   -2.2479  -11.0559   O
  -14.4884  -40.0737  -46.6733   O
  -20.3914  -43.4704   33.8568   C
  -34.2744   47.4491   -8.8570   S
  -46.7819  -11.7834  -37.5274   H
  -31.3028   -3.2345   21.6251   S
  -23.4296   20.7906  -36.0100   H
   41.6661  -43.0607   -6.7333   H
  -43.9505  -23.2008  -20.0220   O
   34.0149   33.1634  -35.3027   S
  -16.1090  -14.3335  -12.7340   S
  -42.4661   42.1950   36.3965   C
   40.4648  -45.0002  -13.6045   N
  -10.3825  -31.4869    1.6146   C
   40.2634   25.9801   18.1776   O
  -28.4147  -11.0391   23.5638   O
  -30.3394  -39.4877   20.3696   S
   29.6319  -46.0943  -33.3905   C
  -27.8477  -32.0318    7.0632   C
  -47.2406  -39.6975  -34.9675   O
   -0.8946   10.5008  -48.6305   O
  -15.9155  -49.4083  -30.9668   H
   44.7975   -2.4840   -0.0782   H
  -48.2879  -39.8024  -38.4558   C
   29.8187   20.4500   32.4225   C
   18.7564  -41.0655   -6.6669   S
  -48.5382   -9.3070   46.0927   N
   48.1399  -10.6910  -14.6080   S
  -38.8170   28.0652  -31.6260   O
   39.7896   49.3633  -25.9283   C
  -12.9614   11.5825  -12.6229   N
   -9.5362   37.1270   28.7497   S
   34.5609   11.8131  -47.8755   H
  -31.2560  -38.5443  -46.5014   H
   -2.7195  -16.4757   10.4259   H
   29.1281  -25.4439  -18.9149   C
  -32.5524  -36.8034   39.4859   N
  -38.1233    3.0138  -23.5690   S
  -32.2325   24.6446   -0.0437   S
    4.6140  -36.5621  -44.9850   H
   14.8393  -27.5341   23.1172   O
   49.1073  -42.1652   36.1825   C
  -32.7989  -33.3375  -47.9230   H
   10.6546   -2.8265  -39.7741   N
   40.5479  -42.5397   17.9949   C
    4.2387  -29.5988   48.1966   H
  -15.0251  -10.4130    8.9622   O
  -47.8128  -48.1706  -32.3716   O
   19.9295   -7.4698  -18.4141   N
  -33.4466    9.7008    2.8510   C
  -47.0038  -31.7091   27.7444   N
  -37.6824  -49.3263   33.3936   H
   -5.5422   -5.5710  -26.5473   O
  -47.4365  -24.9787   31.4003   C
   46.1787  -12.3704  -11.8482   H
  -48.8883  -15.9237   29.0929   S
   30.3078   11.3234  -44.5194   O
  -12.7192   47.1928  -31.5059   S
  -18.3981  -13.7908  -13.1599   H
   20.4132  -31.6654   -4.2799   C
  -18.6642   34.9823   49.2401   N
  -33.1819   18.6788    5.4138   O
  -16.4398   22.2603   43.6517   C
    4.8791   14.3080   -8.5954   S
  -18.1309   49.7231   -0.2267   N
  -11.7921   -4.0234   16.4073   O
   24.3419  -20.6763    4.3763   C
  -33.9767   44.1242    3.9587   C
    0.3444  -39.6285  -21.3175   N
  -28.6921   40.0530   -8.9273   O
    8.4883   15.0288  -47.7520   H
   37.5422  -20.4115   47.3208   H
  -47.6182   37.0858  -25.1420   N
   12.3282  -31.4098  -19.6876   N
  -40.7525   23.4332  -37.0807   H
   12.4099  -29.6382  -37.6826   H
  -37.2423   26.7348   36.4387   N
   27.5973   37.1077  -11.8709   C
   35.1559   44.2104   20.1679   S
M  END
$$$$
