Generated Ligand
Programmatically generated
Comment line
100  0  0  0  0  0            999 V2000
    6.6550  -38.8044   30.0258   N
  -15.5341   32.8929  -24.4869   N
   30.0988  -27.8298   -9.0669   S
  -48.2947   25.0608   17.0684   N
   23.7454  -39.9073   -8.5646   S
   23.3967   -4.5171    0.4286   C
   21.8160  -25.8849  -35.2721   O
   -2.5206  -38.3851  -12.8539   O
   10.9221    2.9203  -28.7401   S
   39.3177   44.9422  -26.3008   H
   42.0728   36.7993  -16.1614   O
    1.0125   26.8895  -41.1520   C
   14.7618   -0.6961   11.7666   S
  -30.3655   34.1910    1.2426   O
   29.7792   31.2113  -47.3000   H
  -39.2053   45.1454   30.9791   S
  -39.1226   43.4209   26.3119   S
   15.2267  -44.9098   -1.0948   N
   35.8445   -3.5291   32.6352   C
   14.7607  -10.8325   -6.6048   C
   36.2919   48.7935  -14.2461   S
  -11.3469   -8.3858   38.4566   C
  -38.3260  -19.6575  -30.0398   N
  -43.2916  -32.9992   37.3411   N
  -48.5411   20.5845  -26.3380   N
  -19.2544   32.8913   -7.1590   N
   -3.9195   23.4131   41.5437   O
   32.7116   10.9648  -44.2387   S
  -37.0062   -3.4424   41.3424   S
  -21.4960    6.3180    3.8378   C
  -41.4651  -49.8994  -25.9268   H
  -32.4673  -12.8142  -40.8553   N
  -41.1364   42.9353    0.8467   O
   32.1385   15.5480   39.6061   O
  -45.5475   25.7538   30.7158   O
  -30.9836   11.6575  -11.7898   O
   -7.5802   15.2080  -33.3524   N
   43.4570  -21.9608   33.7198   N
   14.9883    3.7524   30.3167   S
   39.3535   34.5272   14.9827   H
  -25.0247   22.5556   14.1430   N
   26.4180   12.3449   14.4620   O
   21.9314  -43.9138  -32.0589   C
   -8.2159   42.7274  -47.8566   N
   -4.6441    5.1350    9.1858   H
   -3.9795  -16.0516  -29.3830   N
   15.7520   21.0046   28.5397   S
   40.3014  -48.5802   39.2615   H
   45.1110   26.1864  -22.4095   N
    7.9345   17.9566   25.7881   O
  -20.4913    9.1334  -20.4122   H
  -49.4549   46.4363   -6.1118   S
   32.4188  -28.0871   -5.8085   S
   22.6301  -13.5420   11.3952   H
  -30.6271  -43.6219   48.3760   N
   10.6903    2.1226  -24.1576   C
   42.2927   -4.1377    3.8721   H
  -36.9586   13.4858    8.7841   O
   12.8110    3.6486   40.4792   C
   16.8034   -1.0219   18.7350   O
  -18.3533   10.0085    2.4239   O
  -46.6333   42.2895   31.8090   C
    3.8922  -23.9114   12.1473   H
   -6.8827  -13.8411   -2.5284   C
    0.6039   11.4459   30.0113   C
  -22.2592  -34.5532   46.3813   O
   35.4130   22.4935   37.7540   N
   11.6796  -25.1204  -13.0831   S
   48.3336   48.9634   19.0214   O
  -27.1748  -41.4095   25.6127   N
  -44.7092   24.1582   18.1501   O
  -30.6722   20.0822   14.7940   C
   39.3076  -25.8476   21.9856   S
   33.1391   14.0739   -3.1237   N
   28.6257   49.2418   14.5751   S
    2.5573  -36.8849  -43.1785   C
   30.1675  -46.4085   12.8308   C
   16.3292  -21.0372  -35.8611   C
   26.4028  -25.1508   -2.9006   O
  -12.2258   10.4267   14.2251   H
   -8.5721    2.9590  -24.5092   O
   38.9636   20.2108  -23.0227   O
   -6.9138   45.7982   19.4804   O
   11.4642  -45.2879   -7.6269   C
   -7.5519  -22.4446  -21.4429   O
   47.7821   49.3552   37.4301   S
   -2.1798   42.6506   16.4209   S
   38.4383  -49.6749  -17.2122   S
   16.6556  -13.3877  -37.4712   C
  -12.1242    4.3472  -39.9626   N
  -19.7657  -28.7175   -9.2784   O
    9.1023    6.3741   -2.0880   C
   34.9962   15.8544   42.8065   H
   30.6146  -41.2870  -22.6741   H
  -44.9550   14.0686  -43.9023   H
  -30.1639    1.7103    7.5250   C
  -16.7038   14.5358  -39.9777   C
   38.3590  -17.0031  -20.9323   N
   33.7063  -21.5094  -14.3165   H
    7.8723   42.8496   39.1360   H
M  END
$$$$
