Generated Ligand
Programmatically generated
Comment line
100  0  0  0  0  0            999 V2000
   49.2425   10.6187  -12.5229   H
    5.7404  -38.8498   23.3198   N
  -18.4993   -8.3575   33.0551   S
   31.6536  -11.7851   34.3261   S
  -16.8341  -12.4491   -4.0913   H
  -14.8770   19.6430   15.4412   O
  -26.5048  -28.6364   14.4759   N
   47.4382  -47.4838   35.6626   H
   25.1399   46.7608    6.7307   S
   47.6320  -32.3460  -18.0876   C
  -47.6929  -12.4327   -0.0364   O
   44.2687   44.2728   -5.2310   S
  -42.6330   -0.8192  -25.4322   H
  -34.5372   12.6396   49.7572   S
   25.2307  -32.9818  -30.8936   C
   49.0644  -13.3077   33.9552   C
   -1.5009  -18.0542   30.9014   S
   33.2711   31.0190  -47.2455   S
   -2.1931   21.1417   44.0094   C
  -12.8593  -29.8651   28.5860   C
    5.6629  -47.7999  -24.9145   N
   38.8093   36.1851   39.1706   O
  -34.7836    5.9798   38.3491   C
   47.4374   -9.2527  -13.4187   C
   37.3363  -19.3208   -5.7253   N
   -4.3554   34.7251  -31.9117   C
   20.9411   -7.3289   21.2149   N
   22.1776   10.4181   36.5406   N
  -48.3118   49.7168   -1.5068   C
   33.4301  -40.9502  -21.8582   O
  -21.0567   28.2203  -26.3415   S
   -3.0047   -7.6327    4.0352   N
  -44.0642   45.7009  -20.9790   S
   34.5587    1.4345  -43.9006   H
   -3.7947   -8.0058   18.2815   N
  -17.6649  -37.0290  -18.7228   H
  -47.7865   25.2729    8.9381   H
  -20.9380  -45.2951   -1.4337   H
  -36.5857  -36.0613   10.7108   S
  -12.1089  -33.2205  -13.0218   O
   30.4167   43.6640    6.8870   C
  -31.9022    3.6584   45.2269   N
    6.7623   -0.8517   34.9282   C
  -20.6261   33.5087   13.6800   S
   14.7075   32.4672   42.8267   O
   14.5381   20.8025    5.8497   C
  -12.2345  -20.7021   30.7583   H
  -40.8657   35.8402    0.3114   H
  -45.9098   42.2315   47.5581   O
  -28.9831  -23.0417  -46.8614   H
   41.1840  -29.9647   24.9548   C
  -31.4277   29.4361   44.2575   S
  -29.5386   -8.8905    5.5499   C
    3.1238   32.0237   29.9728   N
  -20.9128   33.1362  -38.5161   N
   -3.3503   -3.0676   23.3936   S
  -29.0271  -40.5663  -13.2545   C
   47.6386   12.8386    6.6203   S
   18.1460  -35.9463   -6.8214   S
  -20.1815  -45.3103   -3.6773   H
  -37.5225  -25.0716  -38.2892   C
  -21.3319   14.5021    0.9971   O
   29.8361  -27.1605  -26.3846   S
   23.6414   -8.4817  -13.3211   C
  -11.5638   11.8025    7.1931   C
   47.8218  -35.1567  -16.5817   N
  -49.6505   31.4933   13.4554   C
  -12.8394  -41.2710  -10.9370   H
   35.5430  -42.9185   43.6072   H
   33.8821  -46.3369   46.3936   S
  -31.0004  -12.0676  -35.2523   S
  -46.7789  -37.7121   -9.5946   S
    8.4785   26.3570  -25.3228   H
   28.3248  -19.1897   -4.3076   H
  -38.9823   19.6002   31.7212   C
   21.0879  -22.6308   -8.0041   S
    7.9608  -20.2107  -35.4017   H
  -16.6880  -49.6136  -43.7538   O
   12.0776    6.0796   43.8117   C
   47.2040  -24.0419  -11.4043   N
   30.4134  -47.2325   17.9291   S
   -5.9127   43.0196  -28.9468   C
  -33.3118   12.7049   -7.7458   N
  -37.7412  -39.6934   36.2352   C
   -5.3311  -45.0455   48.7836   H
  -36.4497   40.4819  -27.3183   C
   -8.2663  -35.1169  -28.6826   N
    8.6633    9.5673   -1.6938   H
   37.1169  -34.5167  -23.5556   H
    2.7581    9.4389  -43.7143   C
   -7.1333   14.8908  -31.7180   C
   19.4864   34.0630   36.9943   C
   24.0819  -42.1863  -23.2967   H
   29.4422   -5.8427   30.2683   H
  -28.5898  -30.0417   38.7223   N
  -18.8569  -14.4848   -1.4416   N
   18.2752   13.5799   -8.2127   N
  -36.7736   16.9834    0.1636   C
   36.8947  -49.3958   26.9344   H
  -32.7744  -17.4337   22.0711   N
M  END
$$$$
