Generated Ligand
Programmatically generated
Comment line
100  0  0  0  0  0            999 V2000
   -7.3448  -35.1091   -4.6883   S
  -48.8431   45.9891   38.8942   H
  -48.6949    9.2274  -16.4609   C
  -38.9895   32.1483   22.0012   O
   29.7909   -5.5276  -35.5259   H
  -13.7542   23.2909  -15.7630   O
  -10.4519    0.5783   20.3817   C
  -33.7604  -24.0287  -16.6704   S
    7.4136   41.7698  -13.7118   H
   35.7251   19.2851  -33.9522   N
    6.5377  -10.0414  -35.8765   C
   43.8663   -4.1804    1.5505   N
   -5.7591  -12.8107   -6.0506   O
   36.6340  -49.5239   24.1968   H
   30.0602    6.5247   46.8007   N
   42.5217    4.7724   38.3498   C
   30.1259  -41.0654   20.2114   N
    8.3417   18.0496  -35.1314   O
    8.5090   -4.5602  -26.5142   N
   41.5561  -16.2002   10.8622   S
   44.3152   21.8997  -31.8124   H
   29.5755   10.0411   14.1696   C
  -29.6605   40.7257   37.0318   S
  -15.8811   22.4446   16.5306   C
   21.2919  -43.4729   39.4188   H
  -24.5765   47.7843   44.2805   S
  -32.4791  -12.8933  -15.7021   C
  -35.3032  -13.8713  -28.0158   C
   16.3031   28.0106    0.8532   H
    2.0751   -5.3232   17.3931   H
   13.2286   45.2605  -30.2768   S
   10.7183   13.3107   49.0060   S
    5.5846   47.9505  -48.3945   N
  -19.8121   -1.6477   30.8085   O
   49.7700  -42.7055  -45.9738   H
   18.5883  -13.0065   26.2092   C
   21.2948   18.4081  -14.8908   S
  -40.1471  -11.0731  -39.6439   C
   36.0326  -34.5472   38.1932   C
   26.5298   45.6532  -29.4256   S
  -44.0191   -7.0592   38.2865   H
   48.9684    4.7324   18.7719   O
  -14.0592  -29.8130  -33.2982   S
   20.3719   17.5592   48.4312   C
  -13.3156   20.1568   43.1156   N
   -2.5591   -5.8632   43.3841   O
   32.4572  -44.9354  -39.7989   O
    8.6671   13.8727  -21.5192   S
  -48.4355   45.8574    4.4879   C
   -2.8769   27.8855  -48.0901   C
    4.6065   28.2464   41.5645   N
   18.8630  -35.6114    3.9781   C
   37.3388  -21.1071   13.1200   C
  -49.7506  -49.0501  -25.3766   S
   46.6750  -32.2285   43.5024   H
  -30.8632   43.3356  -15.5564   N
  -44.4976    5.4708   25.2176   O
  -37.6698  -41.5433  -14.1061   S
    7.8620   49.7127  -16.4692   H
   14.4281  -30.0006   35.3598   O
   -1.5593    0.3038  -21.2245   S
   26.4495  -23.8017   33.1991   S
   17.3645   10.8226   36.1646   S
   24.1082  -22.1789   33.8586   S
   38.3231  -15.6581   29.4661   S
   -7.8134   19.0688  -16.8594   O
   32.8130  -37.4157  -31.8617   S
   34.2412  -44.4380   31.5077   C
  -33.7030   13.1486   23.0221   C
   43.8377  -19.4610  -31.9707   O
   30.2745   -5.3486  -33.6471   H
   -5.2256   10.0577  -31.0166   C
   40.6422   20.1918  -34.0887   C
  -29.7203  -21.8636  -16.2265   H
  -17.9225  -38.6280  -16.6290   O
   -5.1374   49.0154   13.3011   S
   45.9473  -10.3541  -10.4076   S
   -9.1491   36.8167   22.7297   H
   -0.8220  -24.5868   -7.3296   O
   26.7012   35.2445   22.1355   N
    3.4771   40.8417    2.7230   H
  -13.8400    5.1430   -5.0879   H
   48.3559   49.8884   -8.6854   H
  -28.1414  -34.1455  -26.7371   S
  -33.2585  -42.8045   23.2086   N
   -0.7292    5.2093   -3.2475   C
   29.0377  -25.2820   -1.9399   H
    1.5023   37.8241  -27.8421   S
   -4.5806  -22.2061   14.5089   S
   17.9098    2.5763   21.0220   C
   45.0841   44.6875   36.3320   C
  -32.0747   14.2844  -32.7606   H
  -24.6357  -37.0447  -31.2008   H
   -5.7185  -29.7546   27.8778   S
  -13.4155   16.2958  -48.0249   O
  -21.1276   25.3451  -45.2985   N
    5.5445  -11.6131   23.7381   H
  -19.2382  -25.4510  -30.9723   C
  -42.1534   33.9120  -38.0178   O
  -33.1706   11.6774   23.8678   N
M  END
$$$$
