Generated Ligand
Programmatically generated
Comment line
100  0  0  0  0  0            999 V2000
   10.0764   -3.0597  -34.3590   O
  -14.0287   40.3737   22.3017   N
  -43.7062   24.4168  -19.8011   O
  -37.6838  -44.6264  -18.0661   O
  -28.9201  -34.3948  -42.5151   S
   -8.6093  -23.8687   15.1358   O
   21.1055  -44.0748   22.2031   S
   49.0568    1.6626   19.4541   H
  -24.8964  -19.5111    7.6222   S
  -47.0816   11.3323   -7.0427   C
  -45.2747    1.7192   12.3917   N
   16.1845  -15.1896  -44.2071   O
   -3.8902   -4.8980  -26.2152   C
   43.6629    2.5258  -36.4266   H
    0.6172   23.3445   21.7315   S
   15.3000  -15.5772    7.0512   S
  -13.3270  -38.1362  -37.4963   N
   17.8586  -19.4029  -33.2456   C
   31.7170   25.8905  -34.3316   H
   12.1960   42.3892    9.4716   N
   -1.5679    5.5858  -43.5097   S
  -33.2565    4.3178   35.7859   C
   31.2556  -42.1191  -10.2356   H
    9.8131   28.9829  -13.8583   N
  -18.4968   44.0679   48.2339   N
   21.7392   40.2663   -7.5802   C
   43.0819   34.8963  -42.3580   H
  -25.9613  -15.8180    1.9052   N
  -32.4504   31.3711   30.0974   N
   35.1708  -21.3213  -34.9958   O
   11.7821  -45.8822   44.7612   H
   27.4193  -33.2225   16.7814   H
   21.9312  -26.7919   21.0619   O
  -19.3159  -41.9649  -17.6746   N
  -27.6541   40.7278   -8.8988   C
   -2.6490   20.8808  -13.2262   S
    0.0275   16.9303    0.6047   N
   42.0050  -17.2164   47.5696   H
  -25.2995   47.6118   -0.4376   O
   -7.5430   38.9250   -3.2965   H
   42.7150   21.5025  -41.3308   O
  -12.8320  -15.0397   34.2231   C
    9.3400   49.4926   45.6471   N
   39.9316  -43.6053  -39.2064   C
  -45.3653   45.1900  -36.3932   C
   -5.1655   17.7656   38.4788   H
   15.8804   36.8666  -21.7697   C
   44.8925   21.1415  -48.1059   C
  -33.6729  -20.4266   43.6433   O
   43.9162   -7.2867   -2.0859   C
   -9.7846  -45.9438  -33.1817   S
   23.5985   27.4053   -4.2920   C
    5.2927  -10.1992   29.5817   C
  -17.8143   25.0698   37.9568   S
  -29.5302   -6.2707    3.1462   H
   41.3313   35.0355   42.0798   N
  -34.9736  -27.9072   36.1793   S
   33.1766   48.0144  -32.7456   H
   -5.1873  -39.5812  -12.3588   H
   10.7943  -43.9216   35.3479   S
   31.5808   28.7902    7.7337   S
    0.5265   28.5071  -21.4130   N
  -39.4720   19.5063   33.3991   H
  -37.8602   -7.6213  -46.9115   S
  -26.6187   28.4380   35.1939   H
  -17.9435    8.4381   23.4439   H
  -33.0833  -31.0706   38.5277   S
   15.0558   33.8866   10.5498   O
   24.9728   24.8130  -10.2817   O
   -1.4153  -28.0381  -27.3257   O
   30.0921   -1.5866  -15.4958   S
   13.1516   26.0271   15.1927   H
   45.1636   -9.9213   34.6507   O
  -41.0503  -23.3135  -44.1382   O
    4.7788  -28.4038   -6.5670   S
   37.7061  -24.4967   15.8987   N
  -38.0218   33.6887   12.5125   H
    1.5861  -42.0153   24.9980   S
   17.3921   39.4123  -43.5154   O
   36.9190   -7.5685  -28.8483   S
   -3.7225  -10.6077   40.9996   C
   29.2618   31.0957  -32.7202   N
   36.1324  -12.8553  -16.9572   H
    9.5972  -27.5398  -36.3014   O
  -44.1272    1.3407  -37.9442   C
  -21.7784   48.9512    1.0671   H
  -43.8460   -8.5643  -33.6008   N
   17.4906  -22.5707  -10.4667   C
   22.7196  -21.2138   18.7711   S
   30.4229   37.3014   27.2496   C
   15.6223  -46.2076  -49.3549   N
   24.6986   11.7332  -29.7372   H
   -8.1219    3.7617   -4.7004   C
   32.0178   34.1342   32.0784   H
  -48.6919   26.6437   35.3949   N
   15.8547   13.9836  -46.1299   N
   14.1413   36.4874  -43.7017   O
   10.1654  -12.7862   23.1998   O
   39.1093   45.7552   38.6788   S
   22.7969   19.6569   14.0206   C
M  END
$$$$
