Generated Ligand
Programmatically generated
Comment line
100  0  0  0  0  0            999 V2000
  -15.8114  -13.9084   33.5725   H
  -24.3898   47.9628  -45.6350   S
   17.8609  -44.6766  -34.1029   S
  -15.2329  -10.4742   28.7456   S
  -45.1947  -33.5282  -10.3834   H
    6.9929   43.6406   34.8498   N
  -47.8753    8.5016  -13.6601   H
   24.4103  -23.9872   37.1411   S
   31.9580   36.8770   23.5503   H
   13.9059   24.9717   14.3072   N
  -14.5783   40.0222  -38.3648   S
   24.2128   20.2583   28.2403   O
   22.1332  -17.4521   47.0368   S
    5.3232  -47.3576   33.7838   C
  -18.2713   17.4864   43.4106   O
   42.0094  -31.6096  -28.7122   N
   14.5180  -46.3220   -7.1403   O
  -48.7492   37.8479   40.9177   O
  -45.5550   -8.6526   23.9355   H
   -9.7454   -5.4223   43.6401   S
  -25.5820   -6.2643   28.4906   N
  -13.7910   -4.7607   11.2413   S
  -34.2320  -30.4464   16.0035   N
   30.1137   -6.3848   24.5638   S
  -45.0448   36.4610   12.6746   H
    8.8725  -25.2808  -49.1835   N
   49.5598   -0.0783  -15.4037   H
  -32.5500  -38.9486  -15.4871   H
  -14.0753   13.7432  -34.7127   S
  -45.4503  -45.2210   34.1401   N
   41.9277  -38.0340   23.6278   O
  -41.6179  -23.3785  -24.4529   C
   -4.9920   27.4743  -34.0336   N
  -47.8023   47.7779   31.1296   N
  -12.2298   35.0261   19.5545   S
   22.6564  -38.4192   26.1789   H
  -27.5072  -11.2763  -16.7519   C
  -49.3336  -45.0574  -10.6140   O
   -3.8905    7.7849    1.5415   S
  -19.9588   46.8472   11.9299   C
   34.1263   32.8781   23.2936   N
   45.2476   22.0184  -14.4330   H
  -46.3736  -10.8788  -26.2962   S
  -14.8599   30.6646  -38.8127   C
   -0.0202  -27.0201   18.9127   S
   -6.3837  -29.4777   -0.6802   N
    7.1322  -15.7896   23.6132   S
   -3.3292   37.7155   31.0472   H
    1.7324   27.6934   47.9423   N
   43.6434   43.0761  -49.3064   O
  -47.9519   10.4775   12.6823   N
   15.3071   18.1127    9.9096   O
  -45.9566  -36.3116  -13.9719   O
   33.5770  -37.2877  -30.8397   O
   42.5808  -42.5022  -24.1961   S
  -48.9479   41.3004  -48.5286   S
   35.7838    5.1938  -48.2793   N
   35.3161   20.8713   12.1267   O
   14.0164   49.3378  -35.8358   N
  -12.6083   48.7298   44.5987   H
   19.0090  -32.1435  -31.4558   S
  -29.3177  -44.3706   28.1981   N
  -18.3967  -11.1891   11.7228   C
   23.5684    5.9892   27.3644   H
  -18.9581  -37.8723  -17.9412   O
   31.2801   -7.2084   21.5860   N
  -35.5965    4.1119   -3.3006   N
   29.6097  -37.1114    9.0288   S
   34.3875   24.2981   16.4140   N
   -3.1623   38.9416  -34.4009   H
   49.4750  -25.6902   20.1496   C
   -7.8250   20.8291  -43.4825   C
   40.0563   -0.2134   -0.3412   O
  -24.8443   41.5392   11.7758   O
  -47.8774   -0.0544  -17.3790   C
  -28.4138   -0.6532  -26.5939   O
  -10.4949  -37.2742   42.6595   N
    8.1178   15.1381   43.2888   H
   27.2296    4.5982  -31.6888   S
  -43.6504   16.1846   45.4493   O
    9.6447   16.1380   18.5814   N
   28.7619   -2.4445   -3.3902   H
   23.6783   -8.2958  -45.1944   N
  -39.5405   -9.9567   12.0782   S
   32.7796  -29.9183  -15.3660   C
  -33.0009  -45.3348   -4.6386   O
   29.1667   -4.2608  -13.7408   C
   36.4304   -9.4781   -9.0464   C
    2.1493   37.0395   36.1286   H
   27.6285   47.3180   18.1143   S
   19.9775  -18.4911  -29.2721   C
   35.0854   19.8688  -16.3804   O
  -49.5963    6.0274   17.3536   O
  -26.0396  -16.4156   -1.7627   N
   27.2254    4.7827  -36.7801   N
  -42.4167   19.8378  -28.6974   O
  -27.6331  -31.1346  -11.4013   O
    1.6218   43.0168  -30.1979   C
   -9.1422   -8.1418  -25.3647   O
  -22.5898    4.0624   19.0443   S
M  END
$$$$
