Generated Ligand
Programmatically generated
Comment line
100  0  0  0  0  0            999 V2000
   49.7963   18.9693   41.8639   C
   21.1756   34.7099   34.7706   O
   41.5424   10.8955  -35.6217   N
   19.2994   37.1168   15.2260   C
  -29.0201   25.3487  -29.1883   O
   13.0530   -0.6626    2.5418   S
  -49.8862  -40.4876   30.6300   C
   -1.3347   -7.3547   -7.5528   N
  -29.8045   30.3202  -37.8019   N
    6.1776  -44.2815  -40.3270   C
  -24.3837  -17.1537  -15.8782   S
   13.7954  -19.0213  -49.0139   C
  -38.3669  -11.5431  -25.2061   C
   23.2461   46.9024  -10.3764   C
  -28.0826   14.5039   -9.7640   H
  -10.6357   47.3671  -16.9316   N
  -16.9636   27.4012  -36.6492   C
   33.8564   32.6123  -36.7665   N
  -22.8180   -2.0811    0.6123   H
   -5.7667   49.3022  -15.8503   S
   24.0866  -13.6215  -33.3019   N
    5.3004   30.7850  -31.3100   S
    4.5959    0.1282    3.3678   C
   30.9099   20.0259  -49.4284   N
   28.2984  -42.7302  -46.5623   O
   -3.1371  -49.4432  -28.5221   C
   30.2675  -18.2069   26.9598   H
  -26.7245  -12.4943   37.6571   O
   11.9120   29.0771  -41.4430   H
    5.3755  -43.4437  -16.8041   S
  -46.0066   43.6879  -15.8804   C
   33.3737   26.6116   35.2534   N
  -14.7911   -4.0131   17.6253   C
   37.1900   32.5644  -19.5849   O
   18.2620  -11.8204  -35.5003   S
  -43.9957   48.4715    2.9400   H
   48.2483   -4.9522    7.2996   H
   20.0863   -3.4532   16.5473   O
   43.3671    3.8048  -19.2009   H
  -10.6659   32.7841   26.6083   S
  -36.5153   -6.5914   43.5836   O
   22.8126  -11.2461   10.3120   C
   40.9405  -44.7412   16.6378   N
  -34.5192   -6.7625  -46.3643   C
   26.3162  -41.9446  -45.4067   H
   11.9371  -42.4010    9.8495   H
  -40.2440    1.7900   17.9247   N
   36.5407   33.6080  -16.3222   C
  -10.1497   -9.9759  -11.0282   O
  -49.3085   26.0368  -19.4968   S
   -2.0952  -23.2067  -31.9903   N
   -3.9635  -38.0399   20.9107   C
  -33.9815  -47.8387   39.4994   H
   11.4096   37.1849  -49.0743   C
    4.5520   30.7352  -41.3520   H
   -9.7672   24.0867  -17.1314   S
    8.3563    6.2380   -0.3656   S
  -36.4433   47.9628   12.9082   O
    7.3478    2.5315  -42.8151   H
   -1.1061   14.7359   48.0974   H
   22.9537   14.8502  -35.9876   S
    3.8035  -49.8933  -40.9895   O
   10.8338  -21.2456   -1.9885   C
   48.6989   49.7587   33.1803   N
  -26.9039   12.1757   17.6663   O
  -43.4000  -19.3441  -37.6457   N
  -35.3126  -48.4432   -9.1285   S
   14.6635   22.4228  -43.9945   O
   29.9576    4.0477  -43.0551   H
  -47.4394   -8.6336   10.0661   O
   16.4359  -45.9504    0.7916   N
  -22.1319   42.0428  -45.9180   C
   44.0954   -9.9371   -9.9449   O
   13.0871   29.8610   29.3447   O
  -41.4933   37.5341   37.9094   C
   37.7923   24.1414  -11.7551   H
   11.9813    4.0603  -16.5490   C
  -34.6664   26.0340   -1.7469   O
    1.7554   26.7710  -23.4748   S
   34.5405  -11.1660   -4.8296   H
  -14.5224   26.2942  -10.7016   C
   47.7759   -5.6721   43.7306   O
   18.9321   23.1340  -15.5541   O
  -10.9097  -29.9690   17.5203   H
  -44.3142    0.0900   38.3597   C
    5.7442   -6.5430   19.9286   S
   28.0800  -46.6674   30.3219   S
  -38.7594   36.0088  -15.5760   S
   35.1642   28.6481    3.1597   N
  -12.2076  -24.2329  -33.2748   S
   -0.0039    7.0333   21.2627   C
  -34.5735   43.2715    7.5530   S
   -8.4824   43.4251   -0.8745   S
   47.2206   41.1638   25.0165   N
   46.3690   39.5718  -37.9777   C
  -18.1632  -21.4252  -39.3943   N
    5.1879   26.7793  -35.8500   C
  -12.7289  -23.8963  -21.4196   N
   28.9658    7.9965  -46.3148   N
  -24.8283   40.0960   49.7322   N
M  END
$$$$
