Generated Ligand
Programmatically generated
Comment line
100  0  0  0  0  0            999 V2000
  -45.2855    7.9554  -45.9491   C
   -9.7719  -31.5402  -18.1453   N
    5.7976  -14.9862   -4.8614   H
   49.5281  -38.2419  -17.2584   S
  -23.0895   -5.3236    3.3843   C
   19.4776  -12.2121  -35.8204   C
   25.3274    8.0111  -25.4147   O
   38.4243   36.9814  -43.4353   N
  -30.2432   24.5127    2.7181   S
  -36.8492  -40.5273  -42.5352   C
  -33.4854   26.2863  -27.3634   N
  -18.4549   16.7236  -41.5412   H
   33.1089  -44.0595    3.6099   O
   47.9848    3.2701  -37.2231   N
  -39.0091  -11.5573   23.6004   C
  -22.0466  -10.2628   -0.6704   S
    8.5001   23.6782  -32.0544   O
  -11.3035    4.0926  -31.5701   H
  -29.8751  -29.5809  -22.9961   H
   45.1088  -34.9721   -9.3959   O
  -19.9783    8.6299   32.3509   H
   34.7502   10.7294  -10.5425   N
   -3.6268   37.5909  -48.6403   N
  -17.0592   -6.7386   40.7334   S
   -9.7034    9.1905   31.4131   S
   30.5722   -4.4804   11.2919   H
   30.0482   33.6420  -21.7666   H
    0.5706  -22.5474  -12.8533   O
  -49.0998    8.6707   -8.8346   H
   39.9348   -0.8688  -41.6027   O
   40.6870  -22.9335    9.1128   N
   38.5549   37.9744  -14.4097   H
  -36.6528   -1.0762  -34.4483   O
   35.7053  -14.3441    7.8006   N
    1.8140  -32.8346   40.6754   H
  -49.6222   38.7031  -28.7390   S
   28.9146  -26.4423  -10.6541   N
   22.0097   41.3138  -28.1210   N
  -47.1457   46.5462   11.3081   N
   46.3836   46.4209  -16.7174   N
  -18.2425  -33.8524    2.6208   C
  -29.9570  -49.0972    8.4026   N
  -18.1704  -13.0979   -1.1444   C
    9.3546   19.4545  -28.7603   S
  -31.3065   44.3979   29.1651   N
  -47.9104   25.6311    2.5743   S
    3.0738   32.7796  -26.4429   O
  -27.0677  -49.1696   35.8479   N
   37.2248   38.4577  -37.0702   O
  -38.9644   47.9936   28.7252   C
    2.0153   43.4554  -12.9811   H
  -12.1531   27.0507   29.8487   N
   36.6840    9.0751    5.1917   N
  -14.0332  -20.5048   14.5126   C
  -24.1840   -1.9741  -40.5539   N
  -22.9464  -43.7830  -44.1995   H
   -0.3264   48.4052  -20.0463   S
   37.3743   47.7495  -43.2718   N
   32.8828   23.6627    1.3071   H
   30.1591   28.3475    6.9205   O
  -34.8310  -23.5691   32.5313   N
   31.1867  -39.5645    9.8546   C
   21.1242   31.9171  -16.1874   N
   46.1136   -1.1644    1.9270   C
  -38.9465  -23.1566  -23.8873   C
  -38.7972   20.8179  -30.2421   C
  -31.8591    0.9627   23.7463   C
  -26.4894   34.4754  -20.6020   H
  -13.0135  -12.8883   38.1847   O
  -49.5821   21.6655   44.6777   N
    8.6976   24.7557   -7.6516   S
  -43.5122   48.8554   44.3237   S
  -45.4615  -18.1432   36.1298   C
   -2.1055   25.4198   20.8923   O
   47.0337  -10.7495  -19.8906   C
   25.8850  -20.8916   23.2063   C
   -8.7611    1.3919  -20.7250   N
   25.4434   24.9111  -44.1785   N
  -25.5710  -46.8597   40.8582   N
   -3.5461    2.2067   29.0776   C
   42.3505   34.5805   33.2521   S
  -49.5705  -28.4205  -21.4379   H
   30.6035   43.6203   -5.5597   N
   28.2916  -37.7639  -14.8531   N
   26.2818   48.5327   30.9276   O
  -30.3120  -47.6385   12.5044   S
  -22.1627  -17.6041   -2.2347   C
  -21.3214  -39.4329  -23.0288   C
   -9.0260   17.5742  -29.6452   C
    7.8136   24.5408   14.1941   N
  -11.2415   22.4152   12.7898   O
  -49.5329  -33.2720   42.4963   C
  -49.1581   -6.3435   17.8250   O
  -34.2683   46.0396   11.5612   S
  -10.2681   16.0085   22.1917   H
   31.1603   45.4280    3.9620   H
   14.1525   32.2950  -42.9835   S
  -49.0716  -35.6231   33.9546   H
    0.8695  -38.9984   -7.3417   O
    7.6724    5.3803   39.1520   C
M  END
$$$$
