Generated Ligand
Programmatically generated
Comment line
100  0  0  0  0  0            999 V2000
    4.6851  -32.2732  -15.2704   S
   29.8593    2.7644   39.4771   H
  -19.6957  -32.7864   37.5414   H
   38.8217   41.0759    2.6602   C
  -44.8694  -10.1399  -18.7270   C
   46.9333   16.8270   39.7384   C
  -26.4816  -10.7505   14.0892   S
  -15.9004    7.2373  -44.5240   H
   21.6691   23.4507  -43.5211   O
   30.1648  -44.3546  -39.4872   O
    0.6119  -14.8757   -8.9142   S
   40.3854   24.7286  -46.7364   S
   32.4702  -25.9102  -33.4277   C
   11.2350  -14.9618   27.8830   S
  -33.4062  -19.2074   -9.1340   S
    0.6990  -46.2843   27.4627   N
   45.1426  -35.0010  -49.1096   S
   45.7628  -30.7457  -40.6676   H
   14.0013  -23.6497   42.5862   S
  -25.0122    2.7506   18.0188   N
   30.8343   -9.7526  -38.5089   S
    6.6573   45.2225  -30.0010   O
  -10.4346   16.3564  -43.4406   N
   13.8231  -22.4363  -12.0951   C
    6.8623  -19.6451   44.9493   S
  -46.3860  -15.6526  -46.4840   O
   48.5513  -40.0182  -20.6483   C
   43.3616  -28.2755  -32.1325   N
  -33.4766  -25.9521  -17.7805   N
  -32.3416    4.4597  -35.3574   C
   45.8964  -33.1766  -45.1542   S
  -27.0362    1.7935   -1.6495   O
   26.1599   17.8441   32.0989   C
  -22.9929  -15.3659   24.6106   O
   -2.4312    7.4712   44.1220   O
   40.2651  -33.8886  -19.5920   H
  -29.4150   -3.9957   -4.2376   H
  -28.5776  -42.6173   23.5330   C
   14.5924  -25.6272   22.8586   H
  -27.8369   -6.8074  -31.6392   O
  -27.7538   40.3295  -46.4213   S
   11.4725    8.3431    8.1454   O
  -49.2775   25.9282   41.0298   N
   -8.9936  -35.5222   -7.2636   S
   28.1819   32.4090  -46.0968   S
   25.7711   -3.1228  -47.0726   C
  -44.2644  -48.4905   -9.0126   O
  -18.9163  -39.8729   -0.0258   S
   15.0474   41.1420   23.2532   O
    9.8932   23.3654   42.2323   S
   21.2754   12.5276   31.7854   N
  -26.1004    5.2047   -9.7592   H
   11.2147  -28.1865   -3.7200   O
   35.7294    6.2569   -6.6772   H
   32.0139    3.3948   -9.1322   N
    3.8924   45.1110   18.7170   S
  -16.5040   15.1129    8.1870   N
    1.5998   19.3292   22.0095   H
   -0.2220    7.5972  -27.4297   H
  -36.4469   19.2067  -48.1715   O
  -26.5456  -26.6439   36.7626   C
   39.2919   -3.8528  -47.4035   N
  -47.3066  -41.0591   19.2490   S
  -10.3822  -40.0465  -42.8660   N
  -13.0494   23.3936  -26.5348   S
   45.6281  -11.3983   13.2318   O
   15.7186   -1.6265   14.5184   S
  -41.3184  -20.8317   -5.4189   S
   11.1942  -36.3094  -47.9623   C
  -36.1953   35.5867  -39.9208   N
   34.5942   -2.6903  -40.2611   C
  -47.4982  -14.1175   12.0339   N
  -22.9368   -5.9842   45.6809   O
   31.1839   27.3677  -12.3178   H
  -22.3840  -38.7008   48.8008   C
  -42.0324   -8.3245   24.4510   S
   -0.4091   13.2793   43.2512   O
  -42.9730    3.1495  -32.7363   H
   27.7341   17.1886  -22.3657   H
  -37.4078   22.7698  -19.7289   S
  -12.0676   33.2416  -33.5165   C
  -16.2033  -25.4003   -9.4717   S
   17.5509   27.0264   33.3061   S
   37.9530   42.4809  -24.2232   H
   -6.5635    7.8082   11.4783   O
  -16.9861  -38.8131   45.7735   S
   -8.5326  -21.3710   11.2391   N
   27.9839  -14.8188  -32.9803   N
   38.5555   35.1211    1.4289   H
  -16.1881   10.0279   43.9005   S
   -8.4937  -10.1023   30.8093   N
   41.9109  -19.7823  -31.3467   C
   35.8346  -14.1945   13.8887   N
  -23.7004    2.3290   44.6888   S
  -44.3192    4.8718    8.7208   C
   41.8615  -25.5153    8.7271   N
   27.1519   38.5826  -31.5845   H
   45.7712  -44.6599   46.2924   C
    1.8388   49.3096  -30.9936   O
   -0.1097  -11.2902  -46.7658   N
M  END
$$$$
