Generated Ligand
Programmatically generated
Comment line
100  0  0  0  0  0            999 V2000
    3.3323   36.9839  -30.7685   H
   49.2722   -0.2774  -45.5126   C
  -31.8214   19.1510   23.2776   O
   19.3147   43.8994  -16.7883   C
   -3.4461   11.9667  -33.7238   H
    9.1580    0.9449    5.2028   H
   -2.8313   -3.2699   47.5511   O
   31.8734  -21.1496  -37.1928   O
   22.6881  -49.1055  -26.0058   S
    4.4659  -24.1903  -45.6104   O
  -12.6896  -18.8722   45.3032   S
    1.5444   23.6154  -31.2887   H
   -4.7515  -37.8041   11.6865   S
  -19.3098   -6.0812   35.9564   S
   -1.4923   44.3054   41.7596   S
  -24.9272  -43.7003   34.7426   H
   15.1352  -23.0409   23.2957   C
  -22.8539   27.5284   37.3899   H
   27.6879   19.4211  -28.9814   S
   42.6006    2.9957   -0.7731   N
   35.3304   42.6414   19.1378   N
  -16.9983  -13.7669    5.9392   H
  -13.0286   31.5059  -14.5541   N
    5.4232   28.9675  -37.2564   O
   20.4386  -45.5914   46.3836   C
    4.6522   24.2545  -37.4390   H
  -43.3982   39.3324  -44.1785   N
   -2.3790  -36.5682   31.6480   O
   27.9300   -2.3082   -4.7661   H
  -26.7627  -17.0830  -15.5660   C
  -26.1942   37.3805   29.2657   O
    5.8858    7.8238   26.2925   S
   17.2448  -24.6384   11.7703   N
   26.5547  -43.1608   10.6029   H
  -19.8414    3.0693   11.3627   S
   17.1464   33.5640  -26.6471   N
  -11.8611   34.9029   22.3518   N
  -22.9433   14.7384   39.8842   N
   27.0701   -4.3187   32.0355   H
  -27.7262  -30.3808   -3.4326   S
  -31.5222  -49.1919  -15.7143   H
  -21.7069    0.2838   -0.3687   C
   24.6475   15.7865   24.0633   H
  -34.8390   35.2366   23.0306   H
   40.4111    8.4435   18.7781   C
   39.5899   16.8230  -15.9348   H
   46.0129   23.5447   12.4627   N
  -36.8271  -48.7940  -34.3296   S
   41.0189    1.8892   -6.8848   O
   -8.4998   30.3079   32.8505   C
  -17.6902  -31.4185  -40.4273   C
   42.7815    8.2948  -34.1620   H
   -4.9668   27.6209  -43.8643   C
    7.8519   43.6681   -0.8085   H
  -24.0156  -35.1228  -45.8869   C
   34.9958   34.4114  -12.0891   S
  -43.2402   37.3049  -12.8261   N
  -10.9065  -33.9342   41.8805   S
   32.7376   38.2235   44.6354   C
  -24.0228  -30.8635  -49.9549   S
  -44.4423   38.2858   -7.3948   O
   -9.5697  -44.9020   14.7144   C
  -33.3752   14.4411  -39.7949   S
   13.8927  -44.1844   49.7738   N
   39.7982   22.8716   40.0105   S
   25.7408   36.4230   27.5421   H
   45.9438   36.1844   46.6843   S
   -5.1393  -46.8459   36.7280   C
   -8.9880  -25.2046    7.9702   N
   47.2093   23.9481   27.9821   C
   29.3636   29.1273  -43.4867   S
   39.7383   26.5533  -38.6435   H
   32.0917   32.4038    5.7728   N
  -29.7573  -38.3285   32.8645   O
  -45.2570   15.0416   41.0143   H
   13.7042  -30.9741   48.1496   H
   24.6140   10.9619  -26.5617   H
   14.0206   30.9198  -22.1039   O
  -26.0920  -34.9499    4.3060   S
  -30.0951  -12.0439   49.7734   H
   44.7673  -42.1375  -44.5004   S
   23.8124  -49.8740  -27.9627   H
   18.7627  -33.1732   11.8122   H
  -39.4044  -17.4550   -9.3992   C
   40.9681  -44.5358  -43.6562   S
  -24.8472  -15.8199  -40.8656   S
  -48.6899   37.5021  -21.3144   H
  -16.8712    0.2845   13.9226   S
    5.2399   27.2907  -21.3210   H
   -8.3864  -25.3498    0.4428   C
   -1.0074    5.4176   41.4041   O
   48.8443   38.0121   33.8786   C
  -33.4066    7.6031   25.6987   C
  -39.8097  -11.2113   22.5260   C
    0.7138   -7.1594  -12.2864   C
  -28.6245   -0.8867   32.8849   N
   -2.6259    3.5168   22.9935   H
  -28.7604    4.5311   49.4833   O
   25.1773   38.0187  -25.8636   N
   24.4507   43.7837  -49.3653   N
M  END
$$$$
