Generated Ligand
Programmatically generated
Comment line
100  0  0  0  0  0            999 V2000
  -32.2412   23.6727  -12.6108   C
    4.1675  -20.6609    4.1751   S
  -42.0112   25.5327   14.3313   O
   22.3578  -13.9609  -47.0730   H
  -13.7117    5.6585  -11.9890   O
   21.6662  -25.3518  -47.5447   H
   36.4433   15.0533   -2.0833   S
  -12.3881   46.1587    6.9127   C
   31.9992   -5.7137   -0.8307   N
  -36.9502   16.4417   38.4497   O
  -24.7323  -18.6803  -39.2198   H
  -36.6179   18.6875  -27.6034   C
  -41.9738   34.3450   30.3215   S
    0.3046   43.5621   16.4419   C
    2.6793   16.9792    0.2980   C
   -8.5211   27.0300   45.5871   N
   34.8072  -37.9475   44.9037   H
    3.3403  -24.2119  -39.5794   N
    7.0768   28.5205  -37.6840   S
   -2.3379   37.5645   -9.3229   S
   32.1727   18.2336   -6.4637   N
  -34.9706  -27.6219    2.7595   H
  -15.2947  -46.5423    7.5024   O
   -7.6275  -15.6180  -24.2672   H
   32.5533   48.9979  -23.4185   O
  -24.8857  -27.1224   32.7258   N
   -5.8138   47.1098  -13.8490   N
   31.3299    8.0166   -8.1769   N
   -5.1099   26.3546    9.1892   N
   29.2489   19.7907  -44.1881   N
   48.4810   45.5311    9.3995   S
   21.3085  -10.6034  -40.1124   H
   -6.1275   15.6144  -21.4750   H
   -6.4024   -4.0473  -18.7159   O
  -16.8124    5.0708   35.1111   O
   19.8020   33.3577   -2.4101   C
   31.3664  -44.2578  -33.1122   C
  -48.6022  -10.7863   27.7543   C
  -22.8610   38.1791   -2.8060   H
   48.8262   -9.7077  -17.6348   C
  -12.7714    1.9395   40.4610   C
  -12.1302   40.2946   32.2451   C
   -4.1467  -45.7585   15.2380   C
    8.8657  -38.4116   40.3055   N
   -5.9284   47.4937   23.1212   C
    6.8150   41.3210   -2.3006   H
   33.6322  -26.0872   33.5794   H
  -35.7219  -35.6874   39.3927   H
   23.9555  -25.7715  -43.7744   C
  -48.7791   38.5350   16.9023   O
  -16.0963  -45.0737  -25.5989   H
   -6.9198  -35.9019   32.2264   S
   45.3808    0.9836   -5.5197   S
   24.5229  -13.0099  -22.1330   C
  -26.1000   -5.6527   14.4138   N
   31.6350    1.4326   20.8352   C
  -29.0594  -48.1137  -31.8612   N
  -21.8444  -26.9439   44.5262   H
   38.6421   29.1594   17.1150   S
   -8.6877  -31.6517  -33.0371   S
  -47.1618  -47.6270   10.8881   C
  -35.1047  -17.8274   -3.8354   S
   45.3912   20.9099   24.1798   C
   27.0409  -43.1122   -8.8340   S
   33.0638   42.7518   18.2943   S
   -7.1900   37.8771    2.2764   H
   18.4730   26.0465   28.8223   O
   16.8874   21.4750  -12.7358   H
   44.2898  -25.9121   31.2117   O
  -40.5089  -17.1618    9.0339   C
   27.7951   43.3508  -19.3717   O
   12.4221   48.3376   -9.2713   H
  -39.9528  -43.9265   -7.9696   O
   39.5810   15.0457   41.5210   O
  -45.5670  -15.4307   26.1264   S
   22.8803   -6.4509   47.7765   N
  -23.6393    9.7663   46.6562   C
  -18.4847  -47.3163   26.5256   S
   -8.0178  -46.5010  -22.0702   N
  -18.6680   34.2650   13.1304   O
  -12.7421  -16.5031   10.8547   N
    8.1636  -18.3044  -19.0787   S
  -16.1723   11.4669   18.0461   N
  -15.1557  -22.1576   40.2391   H
   10.2335   35.0188   15.7109   C
    6.0036   -4.6820    0.2356   C
    3.2893   30.1210  -28.6017   O
   -8.2208    9.2375  -13.3604   N
    0.9315   10.6184   43.6095   O
   -5.7160   12.1789  -34.7506   N
  -31.5749   49.3893  -31.9974   C
   -1.6572   -7.1137  -16.4711   C
  -31.0988  -17.7731   33.9523   N
   43.1587    3.9910    1.8690   S
   30.9157    5.3921  -43.4502   S
  -31.7033    8.2760  -25.5881   N
   -2.4381  -33.6357   42.8848   S
   49.3849   30.1655  -20.3917   H
    8.9519   44.6248   -3.6749   N
   49.5580   49.4846  -15.2260   N
M  END
$$$$
