Generated Ligand
Programmatically generated
Comment line
100  0  0  0  0  0            999 V2000
  -16.1217  -36.5196   45.8518   C
   -8.0888  -39.9897  -13.9719   H
   27.5838   41.2780   -3.3652   O
  -17.7830   -6.4126  -10.5860   C
   17.7875    7.3184  -26.9907   N
    4.5565  -48.8855    0.8173   O
   28.9893    4.8680   15.8841   O
   -7.6823  -17.1141    7.0987   S
   28.9415   -3.6084  -31.2102   S
   44.1374  -27.8944  -41.0291   C
   14.1029   31.4001  -24.1560   S
   -0.8240  -47.3694  -45.3137   S
  -28.3709   49.0468  -48.9198   O
   -9.6824   -7.8775  -27.6580   N
   -1.5441    6.3072    5.9932   C
    4.1862   24.1432   43.6161   S
  -43.3366   48.1551   18.8158   S
    6.7088   32.3307   32.8029   C
  -30.5299   29.9130   -1.7172   O
   34.9516  -30.2622    7.3581   N
  -22.9476   -7.5311   46.8800   N
    4.7084   38.5563    4.5801   N
    5.7327  -16.5564   11.6964   S
   27.0222   21.7464   13.8901   N
   41.1480   24.5736   -8.2234   N
   24.0116   25.8383  -37.5083   N
  -29.8191  -31.9340   22.2127   S
  -30.6599  -19.6945   32.6065   N
  -19.8444  -23.7947    0.3231   N
  -35.8506   23.1380  -49.6785   N
   36.9722  -29.2525   47.6060   S
   10.9005  -25.4406    3.4133   H
   31.5243  -31.6484   -6.9653   N
   40.3239  -18.7807   -7.2969   C
   30.5292   22.6639   48.2709   H
  -10.9142    3.2019   18.5637   C
   24.6304   35.8454  -46.0940   H
   39.8202  -36.9082    4.0384   N
   33.6450   30.4528   29.1654   H
   22.8576    4.6841   -3.5177   H
   45.7764  -43.6534   13.9595   C
  -13.3305    0.7600  -22.6498   O
  -19.6692   -0.0295   47.9329   S
   11.6769   49.8765  -22.9530   H
   -5.8416   46.3144   29.3942   H
   41.6747  -37.2664  -46.8423   O
  -31.5897   18.8401  -20.7834   H
   42.7681  -41.2865  -23.0667   S
   49.1812  -33.0019   37.3810   N
    5.3121    7.1310    6.1354   C
    5.4613   47.2080    7.0332   O
  -47.9474  -27.6430   41.3456   S
  -48.9223   -8.7773  -35.0025   C
   40.4335   36.6112    9.2780   N
   16.9991   16.1906  -17.2352   N
  -18.9342  -35.4075    2.0039   H
  -22.8800    6.9508   -2.7437   H
  -48.0564   35.9236  -43.1680   O
   39.9081  -22.2757  -42.7652   H
   42.0569  -31.0274   48.6188   O
   16.4131   10.3465   -1.2970   C
   36.7185   43.3567  -45.9339   S
  -34.4604  -19.0029   12.2025   O
   47.7474   -3.7819    3.8775   H
  -33.7048   22.0867  -39.2216   H
    2.4587  -28.6620    2.4679   C
  -21.8281  -33.2355  -22.4541   S
  -37.8330   20.2435   28.0516   C
  -46.9707  -26.4588  -23.9023   C
   21.0123   37.1413  -40.8781   C
   49.4966   -5.6494   48.1000   H
  -31.8268    2.7826   29.2549   H
   11.7711   18.0552   30.7276   N
  -39.0936   41.8375  -18.3803   N
   48.0330  -28.2218  -35.9319   S
  -39.6004   -4.6289   36.6031   O
  -27.0924  -35.5993  -26.2978   C
    3.3658   -0.8540  -22.1142   H
   18.7358   43.0687  -20.9290   O
   -1.5001  -23.0951  -24.0662   S
   23.2313  -14.1432   36.6715   N
  -20.7267    2.0081   35.6492   S
    2.1438   49.6747    0.3888   O
  -42.2855  -35.2701  -25.2204   S
  -14.6961  -30.0619   28.7773   C
   18.5497    8.1188    9.5513   C
  -22.1727   45.6488  -42.3076   O
   42.7773  -40.9335   41.2592   H
  -17.8593  -10.9657   33.3815   C
  -39.5605   33.6469   36.1607   O
  -19.3817   20.1859   -6.1260   N
  -21.6891  -29.9564  -10.2575   N
   20.8134  -27.3874  -44.4325   H
    5.1528   34.3389   15.9744   O
    6.3814  -35.3984  -34.6161   H
   49.2524   20.0070   -3.9263   S
  -42.1563  -45.0043  -23.7212   S
  -35.1729   27.3791   28.1688   C
   26.9013  -13.2253    2.7922   O
   39.5450  -34.3215   40.8910   N
M  END
$$$$
