Generated Ligand
Programmatically generated
Comment line
100  0  0  0  0  0            999 V2000
  -16.8835   47.6606  -21.9320   S
   -4.9298  -48.5720   12.8912   H
  -43.7091  -10.8744  -13.2746   O
   47.4928  -18.7499   13.3560   C
   14.6116  -47.3940   42.1119   O
   47.5503   -4.4611   22.7801   N
    5.7948  -34.5591   35.4244   C
  -19.2571   36.1899  -39.9662   O
   43.1852    2.6526   10.7366   C
   21.2291   -3.4642   16.2839   C
   -7.1655   -7.1311   21.6511   S
  -40.1560   -7.7249   45.2783   S
    0.2918   -0.4752  -11.0321   O
  -24.2313  -43.2735    8.4120   S
    3.4536   18.8833    2.7909   O
    5.2265  -22.1100    2.3198   O
   36.8409   43.2684   14.8318   C
  -38.1459  -15.7735   11.7095   H
   11.6340   45.9953   -9.6515   H
  -35.1227  -36.8873  -26.1254   S
  -43.9350  -18.2201  -14.6443   S
  -16.4735    5.9589  -16.9870   O
  -34.3357   42.1806  -20.0709   S
  -40.7554  -38.8925   -1.8416   H
   17.3934   -3.8018    5.3351   S
  -38.4747    5.6478   23.8304   H
   -2.1510  -25.2994   48.3371   O
  -43.9469   39.5854  -24.5200   S
   11.6718    3.5206  -41.9147   C
   19.2829  -18.2273   38.1414   H
  -35.1793   -6.6411   17.4214   C
  -15.8336   -6.3205  -44.7570   S
  -27.7495   42.8911  -41.1069   C
  -38.0671  -28.0978   40.9366   H
  -25.0562  -37.9962   -7.3332   S
   -1.7377  -12.6958   32.1185   H
  -33.4056  -41.4687  -19.0990   S
  -46.6592    5.0474   19.4703   O
    4.8359   14.3073  -39.6262   N
  -41.5223  -48.3822   38.3601   O
    6.6107  -42.8885  -14.0708   C
   11.2204    8.3484  -45.5453   C
   26.5683   17.3112  -17.9204   S
   -5.3858    2.6385   37.9896   H
  -20.0334  -16.5289   29.7355   S
  -48.0287  -14.5307   -9.0143   H
   20.3688   38.7363   -7.4508   S
   13.4837   -1.5500   33.1142   C
   -4.5759  -42.7978   -6.5026   N
  -28.9970   11.5502  -12.9658   C
  -11.5910  -34.9659  -26.1194   O
  -32.4003   26.6099   10.8545   H
  -10.9670   -2.1439  -35.5150   S
   40.8047    7.5092   29.1928   H
   11.1153  -10.3684    9.2219   H
  -22.0001    4.1611   15.2719   C
  -44.9743   10.1849    8.4450   S
   30.5253  -13.0708   33.7463   H
  -11.6394    3.5110  -30.3846   S
   34.9803   14.3250   -9.1435   S
   24.1432   42.1888    6.1920   H
   -6.6330   45.0761   41.8201   O
   -0.4335   18.0910  -38.0688   N
   21.9196  -18.2588   30.8546   S
  -49.0448  -45.7185   29.0057   S
  -39.0793   41.6086  -25.3825   H
   11.6150   43.5291   -5.7912   C
   29.6563  -25.5902  -12.1364   S
   43.5516   24.5615   28.1649   O
   44.8280   11.8828    2.0119   N
  -29.8898   -5.8021  -24.7965   N
   -2.0374   45.6090  -27.7096   H
   15.9806  -28.2909  -35.5323   N
   13.5439   25.5677    0.8571   C
  -43.3971   44.6683   36.5301   S
  -49.5657   39.6967   28.7103   O
  -26.8029   45.9613  -21.5517   N
  -22.3850   -4.2930  -10.4116   C
   14.4146   11.7187  -36.3178   O
   14.2385   32.1124   -9.1923   C
    9.6020   26.9288  -28.0194   O
  -33.5864  -31.9796   40.7560   C
  -26.4429   15.2709  -49.1730   O
   27.6272  -23.1921   25.3637   N
    8.9641   25.0511   -0.6814   O
   16.4822  -39.3098   10.5013   S
  -31.2333   17.3833  -19.0740   C
   42.2366   23.1077   -3.4888   O
   20.3727   -4.9424  -21.3596   S
  -49.0005   37.7361  -28.4165   O
   33.5882  -19.6509  -18.5434   N
   31.5619  -35.4430   20.0497   N
  -42.1653   -6.3798    5.7688   C
    7.6783   32.3136  -44.5473   H
    8.4675   45.5138   -4.2394   O
  -17.0070   -6.9406   -4.7221   H
  -19.0059  -33.1627   26.6902   N
    4.7725  -10.2629  -37.4901   S
   24.6785   33.6318   18.0495   S
  -35.4935  -24.5047  -26.7453   S
M  END
$$$$
