Generated Ligand
Programmatically generated
Comment line
100  0  0  0  0  0            999 V2000
   43.3068   -2.5676   18.3998   C
   24.8029  -44.3972  -44.3812   O
  -35.7977   19.7894  -12.9565   H
   32.3155  -12.1669    4.8684   S
  -41.6865   46.9129   39.1084   S
   35.1084  -17.8089   -6.2287   S
  -35.7493   48.2068   45.9399   S
    2.5206  -16.8096   43.2283   C
  -30.1447   -8.0556   46.2009   N
   17.9851   23.9199  -35.4032   N
   37.6056   -6.0587  -27.9329   C
  -32.9652   -6.5712   34.9754   C
   29.6747   16.0269   -4.9542   O
   12.0459   12.3675   32.5643   S
   46.6361  -25.7081    5.5787   N
    5.8790   14.7002   42.2867   S
   28.8734   18.9740   17.4066   C
   41.2308  -35.2422   39.2178   O
  -28.0261   32.1046   26.7678   O
   -1.2225    2.9040   31.4461   H
   17.3884  -18.2033  -43.1217   H
   33.0723  -44.8588   23.7506   S
   48.6332    7.9207    3.8345   O
  -19.9379  -30.5272    3.3254   H
   24.6351  -32.2955  -32.4113   H
  -25.2938   37.2086    7.4398   S
   18.1180  -47.8411  -48.0025   C
  -27.3809   32.6452  -45.8045   S
   26.4743   10.6800   43.7714   S
   18.1912    7.7080  -48.5105   N
   30.1906  -20.7477  -16.3554   C
  -27.4817   45.9995  -33.9991   C
  -36.0853  -38.8729  -10.8212   N
  -10.2153    8.8634   48.0475   O
   39.3248   15.2133  -17.8447   C
   10.5556   -1.5893  -30.8436   N
  -10.0856   40.7876   22.4271   N
    4.0338  -32.6017  -39.2590   C
   46.9979  -14.7569  -49.8570   C
   31.4072    5.0436   41.9703   S
    3.3048   -5.2632   -2.7632   H
   43.5179  -27.5379   23.0788   O
  -19.8497  -11.5783   49.1987   H
   28.0986   23.7458   10.6273   H
   14.8523   42.7528   49.6240   S
  -19.0687    6.2351  -24.8224   H
   -7.4656    5.4568    5.1900   O
   42.1184  -23.9344   -6.4672   H
    2.9198    5.8586   -5.5762   O
  -28.6796    9.7449   26.7885   N
    6.4260    2.9226   17.5734   C
  -24.4287  -49.1355  -25.9620   C
   23.9019   43.5686    1.2420   N
  -14.6639  -44.0475   23.5124   N
  -36.0593  -32.3055   14.1241   H
    9.9576   31.9945  -37.2771   H
   26.6999    6.4300  -16.1222   C
   34.8806   12.7486   12.9899   H
   38.8031   19.4800   12.2414   N
  -20.5379  -28.5051   10.3507   S
   31.0702    2.2704   37.2426   O
   23.7876  -14.9538   -1.5013   O
  -28.0051  -38.8564  -10.5023   O
  -41.6815   20.9803  -45.9451   S
   37.1399  -32.3161  -20.7529   C
   32.3043   -1.7331    2.0778   O
   -9.8451    2.2203  -30.9425   C
   -3.5243  -34.2026  -19.9079   S
  -17.6898  -39.3407  -23.5366   S
  -14.6985   13.1802  -11.0052   N
   -6.5340    2.2421   14.8345   S
  -20.1123   36.1871   21.4535   S
  -43.9266   35.4298   23.0999   N
   31.0652  -15.6225   17.7203   C
   -1.5001   -9.7756   28.2958   O
   37.9082   -1.3665  -29.8580   O
  -44.1164   47.8379  -14.5269   N
  -14.7553   -6.2194   40.8470   C
    3.0035  -34.9327   32.0249   S
   -9.2392   -4.5891  -46.6391   N
   31.0433  -30.7888  -12.5076   S
  -37.8991  -43.4897  -21.9961   C
  -33.6769   48.7368   15.7343   S
    3.5490  -24.4965  -30.2817   H
  -24.6101   35.9563   18.1926   O
  -24.4346   -7.2442  -48.4899   O
   15.0893   13.4870  -21.8067   S
   26.9913  -38.2058    5.6672   N
   47.6279   16.1365  -32.1409   C
  -42.4625  -21.0492   32.3666   S
  -38.0861   44.9269  -19.3613   N
  -23.8769   33.2417  -29.5594   O
   29.3231   15.2335   37.9388   S
   -1.1080  -20.5563  -29.8084   S
  -13.2136  -21.4445   43.3712   C
   -0.5471  -35.3335  -16.4619   S
   30.0250  -36.1844   32.2249   N
   21.1559   -8.3828    6.2084   S
  -40.1178  -18.7959   27.8539   C
  -38.6356  -14.5756   41.1866   N
M  END
$$$$
