Generated Ligand
Programmatically generated
Comment line
100  0  0  0  0  0            999 V2000
  -43.7828   16.1050  -30.7621   C
  -23.3263   31.8994   42.6496   C
  -27.3925   12.9083  -15.4116   S
  -30.3123    7.0796  -13.0984   N
   28.1073   49.1014    0.5812   S
  -41.7743  -31.9900  -39.7810   N
   22.1932   -3.2479  -47.0344   O
   18.0297  -13.1173  -25.5080   C
   -2.1835  -40.0293  -39.5406   O
  -25.0008  -24.3299    4.5594   O
  -43.8286  -14.9071  -41.4412   H
   37.1015   18.0512   25.9197   C
    9.8259  -20.4758    4.2506   S
   33.5898  -42.7682  -22.2583   H
   49.5709   33.8087  -18.4759   N
  -47.0438  -31.2766   34.9764   O
   36.5303   25.3695   31.3552   N
   -2.9984  -13.4159  -19.8753   C
  -43.7784   27.3455    7.3004   H
    1.1726  -29.6972  -47.1912   S
   28.1875  -48.1738   11.2373   C
   22.6434  -34.8428    9.5839   O
  -19.1592  -32.7757  -11.0905   O
  -21.8536  -14.9184  -21.5098   H
   -0.1567  -26.8117   41.6854   O
  -18.9936   22.5890   41.4770   S
   11.7413  -16.2502   42.1324   N
  -24.0736   17.5239   -0.4784   O
  -26.8459  -46.9029   26.9783   N
  -34.1602  -34.5187  -28.6067   H
  -45.4023  -47.6081  -28.8651   O
   16.0125  -15.8177    4.9943   N
   17.8658   28.5141   15.4179   C
   -5.4912   26.2478   42.3374   C
  -46.5189   16.0306    8.4078   N
   15.2197   -5.4443   40.3078   N
  -23.5487   18.7142  -16.0868   H
  -17.2547   19.2651  -18.3515   O
  -33.5307   45.9285  -14.2747   N
   35.7422   12.0635   14.4352   C
  -17.2751   29.2741  -34.6979   N
   10.0857  -22.6582  -15.5820   H
  -26.3051  -34.3325   17.5660   O
  -18.3768   11.6857   22.0451   H
    8.8384   11.1063  -40.9836   C
   42.4143  -13.6833  -23.8942   C
   38.1854   -4.4844   19.8480   O
   12.6694  -17.5300  -11.3478   S
  -10.9028   29.1270    5.8901   C
  -11.2048   30.3701  -23.0383   H
  -39.1526   31.6772  -45.2161   C
   36.8550   31.4155  -49.5590   N
   -6.4253   19.1834   -1.3725   H
  -35.8620   34.1624    8.4451   S
  -26.3583   -8.9759  -35.9033   S
  -20.1430    1.2477  -40.2892   O
    2.5344   10.6066  -11.5050   S
   39.5360  -29.2495  -10.5651   C
   37.7395  -13.3089   -8.5200   O
  -26.0376  -22.8076   25.1153   O
    4.7017  -43.5838   -7.1150   O
   26.6239  -10.0350   16.0589   S
    5.6124    6.2702    7.9075   S
  -49.6077   -9.9475   46.0587   S
  -29.5368   39.1433  -48.8527   H
   26.5707  -32.8149  -32.6550   N
  -15.9222   40.9591   12.8275   H
  -11.8264  -13.8379  -32.8351   N
  -26.6955  -43.9323  -26.6239   O
  -19.5544   20.1066   16.0454   H
    5.3132   49.4435  -32.2490   H
   39.5235    6.1047   38.4028   N
  -12.7581   30.0082  -13.7751   N
   34.7775    7.7209   14.8182   C
   32.4929   -9.2388   -0.7806   O
   -6.3696   43.1312  -38.6479   H
   24.4283  -39.1815    2.6243   S
   39.9186   -2.3807   13.6042   S
  -18.8624  -16.5697    3.9093   S
  -10.9480  -35.0319   36.2423   C
   49.7113  -41.5831   45.7317   H
   20.8677   36.2192  -31.3259   C
   41.9554   -2.9586   22.0820   O
   31.4069   13.4822  -22.3466   C
  -25.3194   16.6725    8.7835   S
  -29.1762    1.6132   40.4210   H
  -43.2617  -14.1088    5.1058   C
   23.8346   30.8712   26.2898   N
   31.9041  -45.7560   35.5956   N
  -36.8966    1.8083   41.3172   H
  -16.3388   13.2358  -33.3924   S
  -17.2774    5.2442   -7.8652   N
  -14.0879   -2.7062   -7.5797   O
   29.7232   12.9108   29.4445   C
   11.9713   28.1349  -30.4782   S
  -10.5199  -48.8697   -3.9357   O
  -43.7853   16.1150  -26.4234   H
   12.7395    7.5490   43.7650   H
   -3.4229   -5.1727  -46.8480   O
   23.0808  -37.8623  -20.9278   N
M  END
$$$$
