Generated Ligand
Programmatically generated
Comment line
100  0  0  0  0  0            999 V2000
   47.3724  -32.6007  -27.9452   S
   42.1657  -16.3715   35.0831   C
    9.9321  -44.0159  -39.1226   S
   14.3736  -43.9487   18.2881   O
  -49.3123    5.3171  -17.8398   S
  -48.5597  -48.1468   37.2094   H
  -24.3278    5.6845   -9.8764   O
   20.9523   44.0157   30.4537   H
   24.7797   14.2100   15.4850   N
   30.2485  -39.8147  -31.9324   S
  -41.0170   38.3182   42.3801   N
  -33.9138  -46.1784  -31.7153   H
  -49.4186  -10.3136  -28.4165   H
    5.9583   41.8105   10.6588   O
   21.1779    1.3206   12.9614   N
  -19.1608  -25.1919   35.9825   O
  -38.3420   46.8451  -35.2544   H
   49.9217   47.2596   -5.4732   N
   47.7736  -48.1600    2.1135   O
   37.9300  -33.2745   41.2156   C
   12.2873  -21.8489   11.7698   H
  -23.0162  -22.7356   36.4408   H
    4.1694  -19.6152   -3.6573   S
  -12.7490  -28.1776  -45.1563   C
  -13.7221  -25.9785  -20.8230   O
   34.7974  -46.7501   -0.8428   O
   18.1751  -44.9500  -17.8919   O
   11.1958  -16.2853  -43.9395   H
    3.4223  -46.3335   20.6967   S
   44.8046  -16.8249   12.3362   N
   -9.3280   25.0705  -39.8830   N
    3.7655    6.8429   16.7684   C
   16.1489  -25.7482   23.3195   H
   49.1111  -19.5768  -41.7416   H
    7.6105  -41.4957  -40.8923   N
  -15.8617  -11.5344   -5.3548   O
   47.4525   37.6507  -40.1599   O
   -5.6044  -47.9087  -41.0678   H
  -12.2297   49.1365  -25.0899   H
   46.5687  -25.2734    3.5118   S
  -28.0503  -10.8425   48.9482   H
   26.3409    7.3716   -7.9538   H
   29.3524    5.9271  -10.7475   H
  -40.4532  -24.8133   35.6833   O
  -40.9272   -1.0579    7.1214   H
  -37.0144    5.7603  -19.4544   S
  -10.6466   28.5007   19.6570   C
   40.8364    6.0740    8.1234   O
  -15.1019  -45.0506   -3.5057   H
   43.9124   10.6706  -40.4297   C
   -1.6048   25.5594   11.5913   N
  -29.5074   13.0457   16.5681   O
   15.8299   -5.6537  -32.0388   C
  -10.4794  -25.3413   -7.1690   S
    1.5309  -44.5462   23.0705   O
    6.3605   38.7570   29.5880   H
  -27.8336   -1.6068  -26.5345   S
  -25.6529   33.5466   43.9174   C
  -14.5276   26.1342  -12.6448   C
    9.7987    4.3188   14.9603   S
   32.8637   -1.0653  -11.9084   H
  -16.2684   -2.6122   14.8665   C
  -39.1883   -5.9414   47.2322   C
   39.9252   49.0518   34.1540   O
   -5.2449   21.8161  -36.5694   H
   -4.9862  -37.0821  -42.9286   C
  -14.0814   23.8748  -33.1942   O
  -11.7021  -13.3821  -15.7125   S
  -11.7697  -21.5912   47.1535   C
  -16.4416   26.6918   34.3216   H
   18.9165   -0.3342   32.3324   S
  -27.8900   42.7021   48.9514   S
   28.9538  -29.3702  -32.2837   N
   37.6141  -25.9435   23.9926   N
  -49.4154   24.9685  -18.9752   H
  -33.2263  -33.0728    1.1022   C
  -47.5615  -38.8325    6.8933   O
  -22.6656   29.4462  -26.7116   N
    3.0448   20.7785   32.6143   C
   43.6379    9.7663  -40.5438   C
  -21.5052   14.9761  -38.8840   N
   23.2939   12.2481  -47.8684   H
   37.7404  -16.9925   28.6430   O
  -18.2968  -45.5937  -47.4077   O
  -34.3226   30.3776   -6.4306   S
   -4.9341   45.7406  -37.2505   S
  -13.7284  -24.4771   44.6280   H
   35.8837   18.3510  -49.4956   S
   10.7637  -31.1833  -24.3442   S
  -19.9383  -18.7773    3.9080   N
   -4.2676   10.6902  -22.3549   C
  -25.6405  -36.9113  -13.1272   N
   24.9539   16.3559   42.0811   S
   20.1800  -44.0794  -41.7401   S
  -47.7279  -20.0151  -14.4766   N
   23.5457   37.4583    7.9955   S
   12.9994   -5.1081   37.9807   H
   43.1818   42.5316   -1.7055   H
  -41.8075   -3.7663   31.7548   S
   47.0053   17.7436  -40.8938   H
M  END
$$$$
