Generated Ligand
Programmatically generated
Comment line
100  0  0  0  0  0            999 V2000
  -10.5000    7.8884  -33.1393   N
  -24.9162   23.4321   -9.2450   C
  -17.6140  -12.1769  -35.1749   H
   44.4731  -34.6041  -38.1624   C
   -8.2898  -14.5790   33.7496   O
   -9.6397  -20.8188  -26.6139   C
   29.1813   -3.0805   -4.3292   C
    2.0310   -9.3096    8.8179   S
   27.7161    6.3252  -13.6859   C
  -43.1906   42.0498   47.5907   S
   -4.4782  -29.7088  -23.1638   C
  -28.2117  -27.2193   17.9801   H
  -23.7895  -27.9670  -22.2723   N
  -26.6511   -1.1997   40.0826   O
   21.5222   44.6627  -10.2064   H
   13.1138   27.2520   -7.1094   C
    3.8327   28.8416    1.6989   H
   -4.0426  -38.2139  -27.8785   S
   43.3399   14.5282  -11.5139   S
   41.8161   30.0382    3.6675   C
   33.1720   25.0177  -40.9946   O
  -16.2300   -8.9604  -48.2686   H
  -14.0954  -31.1200   21.4619   C
   13.2099  -18.4219   22.6022   S
   26.5817  -38.0776   37.0917   N
   47.0487   36.0172   18.5820   N
   35.8715   25.0050   -5.9998   C
  -22.4378   -9.3165   44.1828   O
    3.8847   -9.4276   46.4992   H
   31.0926  -31.3004  -25.9986   C
  -37.2225  -33.9355   11.3151   H
  -11.5917  -35.7009    3.6923   C
   11.3438  -41.3320    2.2965   N
  -13.0747   -3.6054  -45.3210   N
   22.6555  -36.4492   13.3771   N
  -40.6071  -13.9245   45.5617   O
   46.3132    1.9320  -34.1226   H
   22.8404   34.6628   -6.8690   C
   43.9938   -8.7746    6.9715   H
  -12.7407  -10.3356  -47.8099   N
  -18.5364   41.9466   39.6779   O
  -19.9109   46.8230   -3.2035   N
  -24.1668  -30.1727   24.2128   N
  -18.1119   49.8127    8.5453   O
  -45.2512  -38.8832   46.6397   N
   19.9528  -33.0544    3.7078   S
   27.3390   15.4114   41.5384   S
   28.3809  -31.2308  -28.0115   H
   43.5646  -22.0141   21.9799   H
  -39.1378  -29.7004   28.0387   H
   -5.5994   -6.8056  -28.8066   S
  -15.9981   -8.0505  -25.5670   N
   39.0098  -34.6327   21.8858   C
    5.1585  -29.3624   -3.4228   N
   33.8833    8.3110   29.1385   S
   39.2748   -9.2176  -16.4915   O
   22.0710   48.3465  -12.0879   C
   -2.4611   23.0233  -15.2790   C
   43.6061  -39.6283  -23.1323   H
    8.2552   35.0787  -14.0940   S
  -31.8733   48.3694   10.8401   C
   -4.1847   37.2664   27.8782   C
    2.9409  -49.7688   -8.2736   C
  -21.0321   43.2406    4.4444   S
   31.4174   22.5849  -33.1689   S
   39.4033  -20.2766   32.6483   C
   11.9772   22.6664    9.3569   O
   27.8044    0.2063  -35.0973   N
  -48.0412   22.5278   38.6354   O
  -42.2414  -28.4686  -44.8091   H
   24.7923   -7.8508  -34.2772   C
   15.5536  -18.2338  -44.9862   C
  -20.8453   17.0817   42.9871   C
   25.3484   17.9368    5.5272   S
   34.1146   17.1019  -34.1024   S
  -45.8074   42.7246  -32.8771   H
   23.5213    0.3542  -43.0557   C
   38.2626   29.3861   20.6561   O
   41.0452   -4.7748  -48.2947   H
   47.0228   18.2991  -44.1852   C
  -15.5333   48.8712   11.3835   N
   -1.2473   -4.4487   15.1876   H
    6.2204  -13.5990   38.6210   S
   -6.8483   38.6724   18.6684   C
   48.0272   22.9756  -13.6818   C
   14.3271  -38.2557   17.1000   S
  -23.6963   14.3776  -20.5696   N
  -22.2434   31.7754  -20.3761   O
    0.6545   31.7195  -38.3022   N
   -8.3550   16.4380   42.4370   O
    1.7062  -35.9357  -43.9804   O
  -20.7383   11.0654    1.4920   S
  -22.8095   -4.0175   27.6647   S
  -13.5527   -7.7524    8.8730   N
  -17.1794   -6.6905   47.4667   S
    8.1026  -20.7371   13.3694   O
   38.4360   20.5912   15.6424   C
  -23.6190   16.0660  -44.4237   S
  -12.9408  -13.9673  -29.0803   O
  -49.7908   32.2035  -48.1660   H
M  END
$$$$
