Generated Ligand
Programmatically generated
Comment line
100  0  0  0  0  0            999 V2000
  -46.6596  -12.6864   24.1610   C
  -11.6069  -20.9325  -26.6847   H
  -34.6207  -39.9673   24.2654   S
   47.5234  -35.8914  -13.6624   H
   43.9965  -41.1714   43.8103   O
   16.0435  -12.3295    5.0802   O
  -14.7306  -48.7614    2.2077   O
   -9.5704   10.6343  -38.7786   H
  -24.6474   34.0675    4.1756   O
   34.6521   40.9224    4.3506   H
  -35.4798   12.8313   -2.8677   C
   42.6328   -1.4193   45.0990   S
    8.9089   26.0582   -6.9485   O
    2.9324  -22.8825    2.0665   O
   -5.1073   21.0164   11.3028   O
  -47.0396  -12.5307  -44.0055   H
   39.2235   -5.8584    5.7740   C
   42.1480   47.6868  -34.1977   H
    6.3592  -46.9116   47.3537   N
  -45.4856  -28.9457  -13.4873   C
  -10.2684  -25.5210  -48.6351   C
   28.4013  -46.3989   18.6879   H
  -12.3325  -26.9889  -46.1106   H
   10.0604   20.4670   15.4496   O
  -44.5107  -10.1798   25.3452   N
   48.4029  -19.2691  -11.2724   N
   28.6924  -37.8151  -34.2580   N
    5.6025  -47.0314   40.7614   C
    8.0270   26.7284  -17.2671   S
   47.0656  -47.7985   18.9926   N
  -12.7881  -25.6304  -24.1392   S
  -44.1218   17.9431   30.4102   N
   36.7570  -30.0267  -17.9304   C
   19.6531   41.0771  -48.9094   S
   -2.2727  -19.2207   -0.0377   S
  -46.0939    6.0548  -49.6833   N
  -22.7040   22.8401   -7.9589   H
  -32.4844    3.3775   -3.6357   N
   34.9777   38.6544    7.8975   C
  -17.4222    4.5771  -49.4941   O
    8.3923  -14.1635   16.4883   C
  -18.4614   29.8348    6.6344   C
   32.4878   -1.2851  -29.1525   N
    6.7654  -24.7303   36.0259   H
  -43.7177  -24.1048   -6.8110   H
   37.1819  -39.6791  -14.1149   S
   46.2844   16.3205   -3.7840   H
   33.1821   32.1640  -25.5192   N
  -10.8771  -18.5820  -17.8348   C
   -1.6189    5.9434   45.8401   C
  -26.7874   29.8854  -36.0693   N
   27.5415    2.2402  -15.3121   O
    6.4117  -40.8075  -36.5565   H
  -14.4012  -18.6319    5.0907   S
  -22.1263  -17.1583  -25.7527   H
   47.3498   46.0961   37.1416   C
  -47.1754   23.7108   35.3139   H
   25.3025  -25.4798   44.2069   C
  -20.8249  -18.5590   -7.0697   C
  -43.7874   10.7856  -29.7369   S
  -30.7441    6.4866  -13.4961   O
    3.2369  -26.0872  -27.8414   S
   44.2041   -1.0962  -31.8214   O
   22.3618   27.2270   45.5935   C
   -7.2966  -33.7199   19.2781   H
   48.3189    4.7524   -6.2126   S
   36.5096  -20.8337   46.6084   H
  -32.8845   17.5572  -29.6341   H
    2.8426   -3.0807  -14.4744   O
  -24.5888   34.7192   29.8893   S
  -16.7843  -15.6310  -49.4968   C
    5.8935  -20.9582   24.5609   N
  -43.1454  -49.4735    9.7075   S
  -47.1966  -18.4696   17.1441   S
  -16.6899  -28.0641   23.1661   C
   -6.7621   11.7979   24.0354   H
   31.1585   34.8442  -24.6287   H
   -7.2162   -7.5920   18.9584   H
   22.7599  -18.1023   -0.4227   S
   11.0359   -0.9729  -24.6618   O
   27.6575   32.2799  -31.4728   C
   12.2936   47.0269  -22.3805   S
  -11.9359  -24.5722   40.8415   O
   14.9265  -40.9948   -2.7416   O
  -17.6593   49.3355  -43.6891   S
  -39.9252  -42.8589   37.0521   C
  -24.4657   40.6120  -39.6816   C
   49.8400  -10.8889   -3.3414   O
   21.7109   41.6974  -45.8759   S
   -2.0846    0.1594  -39.6737   S
   13.4971   37.5202   -5.0875   O
   34.2167  -19.9009   17.4439   O
  -30.3197  -43.7658   23.3859   O
  -25.3430  -42.5353   16.6534   O
  -27.4280  -14.2730   21.8858   O
   35.0746   45.0801   30.2571   O
  -39.0084   32.1159  -25.0477   S
    3.7451  -17.6332   42.3980   O
   42.3237   38.1181   42.2067   H
  -21.1739  -36.1555    0.0682   C
M  END
$$$$
