Generated Ligand
Programmatically generated
Comment line
100  0  0  0  0  0            999 V2000
   23.5603  -16.3649  -48.1629   S
   27.4272   44.6826   28.5965   S
    0.2255  -38.7003  -25.3289   H
  -44.5547   37.3429   12.8863   O
  -10.1717   20.1524  -47.7233   S
  -42.9717  -24.1862  -11.4452   H
   -4.1142   15.1148   40.2406   S
  -22.3464  -27.6811  -16.8529   O
   29.0320  -28.0550  -45.3487   O
  -44.3738   48.3195  -22.1434   S
   37.9825  -40.6553  -28.6460   H
   32.5367   24.7786  -44.3181   S
   28.8255   10.7226   49.7742   C
  -18.2237   14.8900  -24.6830   O
  -48.6135  -45.5866   25.4817   C
  -32.0929   -1.2223   -9.8971   H
   32.3224  -32.5102   -6.4384   N
   25.7072   11.2836   -5.7887   H
   41.9902   49.4524    3.8638   C
  -28.2020  -17.9559  -43.3751   C
  -18.8081   -4.6254   23.3984   H
   20.3478   -3.5854   46.6698   S
   19.7156   29.4770   40.5734   O
    8.8439   -7.6022    7.5565   S
   42.2785   47.1984  -26.9093   S
  -27.2482   23.1069  -17.8239   S
  -44.8172   21.6259  -42.9672   S
   14.9194  -27.1790   24.0499   C
  -41.2151  -44.2767    9.8337   C
   31.2812    1.9488  -19.6067   S
   41.4334   16.1312   18.5919   S
   -9.6935  -11.0409  -13.6850   O
  -15.4927  -29.2041  -47.6679   S
    2.0164  -21.9108   13.5763   O
    2.7972   -5.4573    7.5300   C
  -16.2811  -49.9961  -17.4270   H
  -43.0587   48.3865   39.7956   H
   13.5895  -46.0158  -12.9935   C
  -24.1172  -23.4370   39.4496   C
   10.7971    7.8839   48.6880   H
  -28.2052   29.5133  -42.9870   H
  -48.2198   17.5053  -24.4274   H
   49.8261  -10.0464   14.8076   H
  -11.9276  -22.0731   21.1232   S
  -43.8740  -21.8383  -29.3432   O
  -48.8753   -5.3018   -5.3559   H
   48.6033   21.7712  -43.5667   C
  -40.6378  -23.3114   42.8672   H
   49.9148  -34.2068  -42.8502   C
   46.7786  -12.7412   34.0866   S
   12.0277   31.5940   -1.6063   S
  -38.6228   -1.4269   33.2354   N
  -21.1246  -19.9700  -10.6901   O
   31.1905   44.4336   35.8577   N
  -41.4076   49.3074    8.1895   C
   -4.7823    4.1201  -30.0445   N
   34.5865   28.9223   46.5413   O
   13.8413   45.5814  -48.0730   H
  -20.2703   38.0360   27.4738   S
   34.6428   -5.2247  -47.2476   O
    5.3332  -30.2959  -25.1173   O
   11.6953  -15.4116   31.0759   O
  -28.5306  -48.5763  -45.6899   C
   21.9479  -43.8895  -36.9497   S
   49.8738  -46.4376  -29.3530   S
   16.4351  -25.4645   46.4950   S
   40.2939   -7.1192   43.3137   N
   34.6833    4.2850  -36.6045   N
   48.7981    3.7808  -45.4868   N
  -46.0567   42.6101  -12.5149   N
  -32.3435  -33.3894  -17.1542   C
  -36.2346  -11.8782  -44.4539   C
   13.8786   17.3872   45.3555   N
   10.3280    5.6195    8.7548   C
   35.2696   15.4548   34.5664   H
   41.7187   16.4733  -48.5894   S
  -21.7159  -33.0221   35.2364   O
   23.9975  -47.8071   -3.0136   O
   16.4254  -13.1326  -35.2691   O
   -7.3132  -29.9985   48.2401   H
   41.7775  -18.0528   -0.6016   O
  -22.6133   26.8494   18.2429   C
   35.6164   25.1595   47.4340   S
  -21.8612    2.5352   19.6518   C
  -25.0860  -15.8799  -32.8805   C
   43.1721   13.4876   46.1146   S
   35.3472  -39.2126   42.2323   O
  -45.0714   -1.4125  -20.0316   O
  -34.1934   29.2090  -17.4790   C
    3.4340    9.5369   -9.9618   N
  -35.1144  -35.7371   20.6069   H
   32.7622   23.5432    5.3540   N
   -4.9895   16.6929   26.5235   S
   38.7555  -20.1595   -2.7020   N
  -43.6460    8.6313  -44.7423   S
    6.7549   28.1960   47.5227   N
  -10.1757   40.2337  -24.7548   S
  -23.4223   16.5869  -44.0893   C
  -40.2018   10.6631   47.3777   O
  -39.2830  -39.8143   20.8028   N
M  END
$$$$
