Generated Ligand
Programmatically generated
Comment line
100  0  0  0  0  0            999 V2000
   28.6814   10.7151  -15.8609   S
    0.3654   20.3468  -45.7133   O
  -43.5396   31.3743  -46.3027   S
   48.8824  -27.4757    7.5298   N
  -20.1665  -34.0925   -8.8885   O
  -47.3207   16.7020  -41.1250   C
  -30.8374  -22.3270  -16.2149   C
   -9.7817    0.1462   13.2235   N
  -28.3406  -14.8324  -20.2349   O
  -31.2810    9.6148  -14.3445   C
  -40.9970   30.5407  -18.5081   O
   14.4795   24.5597  -49.1660   C
   35.7626   32.5747   25.0824   O
  -49.8132   -4.0912   32.6680   O
   13.7974  -15.4562  -35.1838   S
   -8.2282  -38.2091  -47.5806   H
   -8.4242   -7.9921   46.8163   S
  -26.8876   40.0394    5.6398   C
    8.5200   47.2116  -39.4440   S
  -12.1858    4.1067  -32.2857   H
   -5.9565   28.6287  -10.2832   S
   28.0331  -10.5355   13.1540   N
  -17.0851   24.2132    9.4329   N
  -16.3153  -23.9499   36.0132   O
  -41.9081   -8.9989  -37.8141   H
    2.8011   -1.8227  -42.9505   S
   25.4216    0.2797  -17.0462   C
   25.9893   16.4512  -21.6023   C
  -18.9203   16.5486   48.7074   S
   -0.9243   27.9677   -4.9784   H
    5.2715  -45.5007    5.1402   O
   -5.6952  -13.2832  -35.5227   S
   21.9366   33.0964   41.7863   H
   22.1150  -14.6271   -9.4145   O
    9.9039   26.8934   13.1463   H
   46.9131  -28.3497    0.2294   O
  -21.8639   -2.1447  -27.9989   N
   37.6811  -31.1563   11.8876   C
   -5.0099   27.8364  -31.0339   H
    6.1224   15.4869   20.5439   C
   24.0359  -24.0959    9.4803   H
   37.2356   -3.2822  -10.6829   N
  -19.9711   42.3609   44.8702   H
  -47.3120   35.2240  -26.4616   N
   10.5470    2.9013   -7.3554   O
   36.8847  -22.8694   -5.1834   S
  -20.6890  -18.2626   41.8407   H
  -46.5002   38.0890   39.0812   C
  -46.2912  -33.8915  -31.2566   S
   31.0504  -15.1762  -35.0292   C
   -5.5521   25.4992  -11.3825   O
   28.6434   32.8168   48.5086   N
  -35.9969   -5.4382    9.1627   C
  -46.0470   -0.3002  -47.6577   H
  -44.3532   -9.9510   46.6908   S
   21.2355   42.3551  -46.8928   S
   25.6382  -39.9486   20.7504   N
  -42.6953  -13.3921  -23.0357   O
   -6.0721    8.7492   22.5360   S
  -15.7254   -9.7515   22.8896   S
  -14.9642  -46.5841    5.9620   O
    0.5596   -7.0211   47.2397   O
  -34.8859   -7.8352   38.3559   N
   37.3833  -26.2845  -10.8270   C
  -23.2489  -28.8658  -28.6724   H
   45.3016    3.5323  -38.7039   C
   38.9736   -2.1838  -22.0033   S
    0.5682   16.2351  -14.5870   C
   48.6963   16.2002  -49.2633   H
   -5.5907   43.5210    7.6500   C
    6.1585  -13.0222  -32.9702   C
  -47.1108   32.6533  -32.3106   C
    7.7528  -40.9398   49.5670   N
    7.8337    1.9737  -16.1150   N
  -48.5423   -7.3390  -39.0380   O
   -8.7919  -28.8566  -34.1239   O
  -35.8256   -7.1812   -4.5942   O
   28.4983   28.4567   27.7408   O
  -19.9513   27.9001    4.8600   S
   11.4611   22.8705   12.1013   S
    6.4121  -23.8006  -43.0237   O
  -13.3106  -18.4663   20.8728   C
  -31.6745   26.3662   -9.9260   C
   38.7227  -45.1612  -32.8487   C
   22.5432   33.4281  -48.3035   H
  -41.3556   -0.5485   36.0720   S
   -6.7796   37.3621   31.6459   O
   40.2456   41.1507   32.2599   C
  -47.2421   23.8122  -45.9209   S
   -1.9580  -34.2275  -28.1557   C
  -49.2905  -27.2453   26.0432   S
   -6.4284  -41.1985   24.5337   S
  -30.2298  -44.6610   -9.7853   C
  -37.7895   48.3430  -34.0113   S
   -6.7148   29.1212   11.1211   H
  -18.2169   -2.2376  -10.7069   O
  -44.6881  -45.1817   43.7178   C
   36.6354  -32.0811   -9.1540   H
  -29.1249   24.1420  -30.6186   N
  -24.2952   25.6642  -20.3327   N
M  END
$$$$
