Generated Ligand
Programmatically generated
Comment line
100  0  0  0  0  0            999 V2000
    1.1515    6.3180  -37.0993   C
   13.8449  -13.2984   22.6644   H
   16.1248   29.4126   42.4688   S
    1.2789  -39.9959  -13.5105   C
   17.9049   19.0629   35.3102   H
   21.3997   -7.5686  -36.1027   N
  -16.6692   31.4672  -15.6983   C
   -0.4200   18.3703   26.9517   N
    7.9511   32.3395  -48.6821   S
   40.2596   -6.6514   22.7818   C
   38.7681  -46.8792    5.3877   C
  -41.8485  -36.2422    6.1777   S
  -47.3444  -44.5484   36.7705   S
   34.2234  -20.9633  -27.5847   N
   -2.1090  -25.0781  -35.7770   N
  -40.5890  -49.8654   20.0667   H
    6.6721  -25.6942  -34.4811   N
  -45.1757   47.0073  -40.0548   C
    6.2535  -12.0714  -37.6582   C
  -23.0363   24.8536   37.5338   S
   42.0853   10.4095  -47.1932   C
  -45.4618   -4.1207   48.0040   C
   44.6533   -1.6853    0.3199   H
   41.6818   -4.9705  -14.5037   O
  -11.0905   22.3385   -8.6332   N
   40.5991   42.8395  -30.1205   H
   29.8439   22.7757   40.5675   S
   40.9473    3.7003  -10.8397   H
   37.9160    0.5394   40.2732   O
    5.5372  -17.0021   -2.3108   C
    3.3001   40.5847  -36.3227   C
  -49.1091   48.8009  -32.1165   C
  -30.8483  -14.0936   12.9408   C
  -42.0473   42.2510   11.9980   H
  -48.7447   16.1427  -31.2083   C
   18.0361    6.9437  -25.1577   H
   39.2114   32.6795  -32.9160   H
   12.8271  -46.1760  -15.7099   C
   49.5146   40.7367  -21.0905   S
   38.4371   11.9467   21.6850   S
   22.5284   49.2713    3.1714   O
   41.0983   42.2794  -15.1715   S
  -37.1341   44.9672  -11.9668   N
   33.7815   26.7778    0.7574   H
  -22.4593  -11.1721  -32.8227   S
  -48.1261  -18.9084   -0.0861   C
  -31.1689   17.6706  -47.0822   N
  -41.6051  -19.3176  -38.5668   N
    9.4248   -4.0816   46.5984   C
   17.1903  -36.3916   31.7464   C
  -49.2347   40.5501   17.2697   H
  -24.3418  -17.3422   11.8111   O
  -13.5510  -30.6491   28.7205   O
  -40.5225    3.9582   14.2927   H
   18.0855   30.7230   45.3352   H
   27.4751   14.8592   49.1486   O
   27.8158   -8.1932   38.2936   S
  -13.7763  -48.3468   31.0844   H
   -5.7811  -37.6782   40.5833   O
   40.6258   -1.4625  -32.1414   H
   19.9293  -29.3765   31.2802   S
   -1.2417  -10.2565   31.1318   S
   12.0298  -17.8929  -10.6382   O
  -47.9149   -0.7567  -39.0728   S
    3.7017  -41.2277   -2.4348   C
  -47.6474  -35.7274   -4.0198   O
  -48.6434    5.8879  -27.8452   C
   -6.0217   20.3596   -1.0819   N
  -31.0961   46.0094  -14.6772   S
    0.6400  -27.7639    0.8023   C
  -25.1559   40.9013   40.0438   O
   15.4852   -2.6724   48.4832   O
   26.0754   35.9846  -11.6178   O
  -37.4270  -49.1291  -49.7510   H
   15.9882   41.7273    8.3122   S
  -30.3112    1.5642   49.4977   N
   24.5521  -16.2568  -29.6669   H
   35.4075  -18.0002   33.9860   C
   21.3159  -44.8668  -48.6371   N
  -27.9070  -16.7838  -27.6241   O
   11.1272   47.5584  -38.1908   C
   44.8089    6.6004  -12.5837   H
  -31.5480   31.7596  -18.4570   S
  -24.4866   33.3566  -11.8134   N
  -46.2319  -31.5865  -20.8220   S
  -14.5776   34.9126   48.5683   N
   33.8020   -3.0304    2.7101   S
  -12.0139    9.1526  -31.1908   C
  -12.0303    0.5284  -14.3016   C
   26.0384   -0.9026  -25.5242   O
   26.7081   22.6481  -25.9719   S
  -19.5805    6.4383   17.6611   H
   46.3840   -6.3361  -25.4679   C
  -49.6163   -6.1974  -36.6904   S
   37.1163   23.5924   40.7115   O
  -32.0204   39.4728  -40.2329   C
   23.5849    3.2328  -29.3905   S
   -1.2775   -7.9661   20.8748   N
   10.7707   34.4361  -21.6936   O
  -44.9958  -44.4191   17.4619   O
M  END
$$$$
