Generated Ligand
Programmatically generated
Comment line
100  0  0  0  0  0            999 V2000
   26.5664    4.2837   48.3664   N
   47.2967   -9.7374  -36.8335   C
   42.4791  -17.9618   -1.5187   O
   11.1650   13.7903   47.1624   H
   -6.7318   11.4047  -35.2818   H
   28.0584  -46.0351    4.2287   O
   29.0754   17.1024   23.8845   N
   -4.0925    7.8604  -48.9175   C
   12.0722   22.5180  -49.5129   H
   36.1588    5.8454  -21.9686   O
   33.1354  -32.4971   44.3173   S
    4.0449   27.1151  -28.1634   H
   46.0896   18.5083  -14.8676   N
  -46.3774    1.9769  -49.5170   H
   35.2802   27.9830  -29.0174   O
   -0.4884   -0.0862    8.6566   S
   44.2785  -30.2922  -16.2147   H
  -18.2227   33.2168   11.3207   S
   31.9176   21.8511  -25.9344   S
    1.5609  -10.3986    9.3168   C
   -1.3081   27.7056   20.7367   O
   12.7521   46.9862   26.8700   C
   26.9037   27.0443   28.0396   O
   -0.8842  -36.4287  -34.6897   N
  -16.1863  -38.4994   -7.5697   C
    7.8593    8.6443   38.4877   S
  -47.6092   21.4670  -40.2450   S
  -27.7857   11.6438   19.8636   O
    0.7688  -21.6118  -30.3769   O
   14.3632   33.3425    5.9657   C
   43.4110  -14.3903  -39.6866   O
  -22.8766  -33.4470   44.7760   C
  -41.1750  -16.7082  -33.5773   S
  -24.1650  -20.6753   45.5626   H
  -49.5406  -34.5250   44.2943   H
  -16.4216   19.7948  -30.0462   C
  -45.9439  -13.5710  -14.3349   S
   -0.8048    4.6688   -9.3016   O
  -48.6600   41.6100   33.1838   N
   15.9154   33.4172  -40.6431   H
   17.1485  -46.5275  -23.9391   O
  -14.7370   -5.0525   36.7210   C
   20.2460   33.8530   28.0483   H
   -1.2599   -3.2916  -20.4117   S
   -7.0998  -20.5910  -21.4774   H
  -32.2048  -24.1724   12.7565   S
  -49.3689    7.3891  -36.6605   H
  -17.3254   45.4520  -30.4177   O
    7.7334   22.9146   -6.4427   H
   13.6920   32.1675   -6.4101   S
   46.8900   -7.1132   -7.4965   H
   -1.4961   -1.0653   34.8985   S
  -26.5580  -14.8793   45.7080   O
   43.6705   20.2304   -1.5740   N
  -38.1225   24.3290   24.7001   C
   22.4385   44.7828  -12.5406   O
  -41.4180  -27.3723  -17.5754   H
   48.0453   18.5334   -4.6973   H
  -35.5545   34.4353  -32.2063   C
   -7.3495  -19.2556  -30.1564   O
  -16.5005  -12.5331  -24.3374   C
   40.5260   -7.5905  -11.2868   O
  -34.5786    9.1025   38.8545   H
    3.6399   31.5640  -19.6269   O
    1.4816  -45.6616   40.2197   S
  -17.8826  -36.4038  -15.0324   S
  -18.8165  -47.1770   28.3926   N
   44.5210   46.4530   19.7677   N
  -38.5334   35.9980   16.5973   N
  -45.7113  -14.7772  -33.2774   H
  -35.0531   31.6589  -38.4410   O
  -19.9265  -48.3274   40.9285   O
   22.7723  -13.3820   -7.3693   H
  -10.0742  -21.8543    7.4881   N
  -20.3351   -9.4709   25.7638   O
  -40.0291  -13.5638   10.8388   C
  -22.8169   13.6186  -14.3233   N
   12.0549  -44.8457   29.4993   O
    4.8925   20.1489  -24.0614   S
  -44.8402  -11.5976  -10.7515   S
    6.5402   32.2778   49.3350   H
  -32.0903   18.8906  -34.6078   S
  -24.4397  -24.0710  -14.7506   C
   39.9899   25.4697  -10.2844   C
  -20.5296  -21.7153  -34.1886   N
   36.0746  -15.4343  -14.6469   S
  -43.9573  -21.7668   47.1080   S
    6.8658   25.9626  -42.3401   S
  -39.2858   12.2387   37.3335   H
  -12.4653  -24.0897  -19.2271   C
  -49.0943  -44.8647   -4.5600   H
   35.1609  -26.0635   17.9375   O
   19.3632  -28.1358   27.9924   S
   15.1535  -37.0404  -43.0083   N
   29.4651   44.6907  -10.7075   O
   29.8546  -17.5554   36.2964   O
   30.4383   31.2789  -27.7967   S
   25.9457  -35.2806   18.6779   N
  -14.1301  -44.7089  -32.8607   N
  -47.9292  -27.6916   22.0374   N
M  END
$$$$
