Generated Ligand
Programmatically generated
Comment line
100  0  0  0  0  0            999 V2000
    8.6614   45.8943    9.3839   H
  -26.7467  -34.5428    0.8604   S
  -38.5729  -22.9160    1.8091   S
   12.3397   40.3284   -7.3027   N
   48.3156   10.5040  -47.0735   N
   32.9522    2.3734  -42.8827   O
  -17.8915  -40.8088  -25.2708   C
  -28.4229  -41.2080   29.3472   H
   14.1197   -5.9269   20.4226   N
  -38.9135   -0.9396   15.2934   O
  -35.8263   20.4321   45.5406   O
   35.9547   25.2974   -8.3929   H
   31.2069   35.5067   25.6056   C
   44.3048  -44.4053  -38.1301   N
  -49.7775    8.0476   26.4168   S
  -38.9922   40.1813   24.5491   S
  -12.2427  -18.3103  -23.0246   C
   27.2018   44.8382   41.5876   H
   26.8298   41.3197  -35.6597   S
  -31.2691    8.1170  -11.2324   H
   45.2087    0.3999   39.2715   N
   38.1515   49.3904   46.5102   O
   47.8127   42.7718   43.0101   H
   28.4359   -2.0382   -7.4778   C
   48.1931   34.7841  -27.2922   S
   44.8716   15.8269   -1.3204   N
   33.2050  -49.8270   18.2448   C
   -5.3044  -14.4650   26.5284   O
    0.8179   31.7634   38.8217   S
   47.3586   14.3928   -7.3704   N
   21.9112  -28.9137   45.2073   O
   -0.5555   37.4546  -20.8724   O
  -41.8613  -42.5835  -47.7443   S
   -8.0540  -26.1847    0.7533   S
    2.6325   48.2896   41.9574   O
  -32.3120  -41.8458   48.6978   C
    9.3684  -27.7951   26.8964   N
    9.8558  -18.7257   48.4413   C
    2.5745   42.6970  -37.5164   N
  -43.9564  -34.1554  -42.1056   H
  -19.6211   48.5466  -38.6677   S
   12.8691    8.9264  -37.7798   S
  -12.3818   35.6207   40.8942   O
  -40.6500   19.5576   43.1655   S
  -44.6548   26.6868  -37.5212   H
   -7.1693  -19.5400   21.7609   C
   -6.7632  -10.3289  -18.7553   S
   -4.6996   20.3274  -10.2539   H
   23.6101   -7.5484   -8.3133   C
   42.5926   17.4829  -14.4399   O
  -11.1481   31.6829   -2.5813   S
   14.0417  -37.3616    6.5559   N
   28.9818   18.6703   21.5497   C
  -40.1040   17.9108  -17.3462   O
   43.2040   23.3653  -36.0914   S
   30.3339  -16.0763  -39.0051   O
   21.6457  -41.8582  -30.1239   N
  -17.8773    8.3721  -23.6566   N
   23.0545   29.2239   32.7489   S
  -15.9306   23.6330   23.0301   C
   15.3973    5.1433    7.9940   O
   -3.5051  -49.5572  -11.1639   S
  -34.5164    9.3506  -44.8176   O
  -40.9127    7.4153  -21.8326   N
  -31.7716   19.8119   40.1645   O
   -4.7358   21.9918  -17.5933   S
  -39.7304   12.5058   -4.0327   O
  -38.4148   48.9928  -30.9817   O
   26.9181   -7.6312   29.6010   O
   24.2868    6.8658   30.4212   C
  -14.4508    8.9696   26.1266   S
  -26.9425    0.3950  -19.4400   S
  -45.8472  -47.8754  -20.0816   O
   28.4369  -49.5913    1.7986   O
  -48.8820   17.0097  -48.9388   S
   -3.5060  -21.3517  -12.2896   H
  -48.0895    5.7440   21.8562   N
   43.3400  -31.5694  -47.8542   N
  -37.1766  -34.4211   48.5409   N
  -41.6956   47.4679  -11.2088   S
  -15.1695   29.9576   -8.4500   S
  -48.4260  -21.5350  -26.2788   C
  -32.4468   36.8287  -37.8742   O
   27.6514   -0.0291  -30.7411   O
  -13.8760  -28.7261  -19.0434   H
  -17.2891   17.1156  -19.9704   O
   33.8810  -13.9779   14.6937   H
   26.9998  -32.4147  -41.3143   N
   33.6230    9.2359    2.4404   N
   -2.5059    1.9127   -0.9156   H
  -34.5295   26.3345  -15.0365   S
  -19.2513  -47.3817    2.0878   S
  -17.4057  -18.8527  -38.7475   H
    8.8615   -5.8886  -13.7333   O
   42.7813   32.9038  -31.5622   H
   -1.0396  -10.7230   34.2222   H
  -35.9482  -28.7543  -34.1677   N
    6.7249  -47.8326   -5.8994   S
    7.6628   41.3363   38.6770   H
  -18.3296  -19.9345   23.6897   C
M  END
$$$$
