Generated Ligand
Programmatically generated
Comment line
100  0  0  0  0  0            999 V2000
   25.9002    6.0570    4.6062   C
   13.3576   -9.8527   38.7693   H
  -29.9076  -11.6364  -30.8080   O
  -14.9268   35.9573  -15.6956   H
  -28.4111   12.5872   44.6782   S
  -10.7646   49.0311  -27.6320   N
  -37.4933  -25.7832   48.9053   N
  -22.2952   -3.1160  -32.9520   H
  -39.5399   33.4696   35.8653   O
  -19.0165  -15.5978  -37.9357   N
  -13.6899  -17.2373  -38.1634   S
   -7.9850  -11.4919   47.8874   O
   14.7465   15.5480   31.5594   S
    6.4651    9.4569  -40.8761   H
  -35.5402  -34.2516  -29.1180   N
    4.2474  -17.0619    9.6678   N
    9.1414   20.1127  -16.1015   H
   11.7141  -46.7046  -44.5800   H
  -43.4238  -32.8809   33.2866   C
  -37.0392  -10.7259   -8.5668   H
  -37.0235   13.6312  -44.0200   C
   37.5399  -42.7169  -47.2410   N
  -32.8557   25.8916   39.9526   H
  -14.2795  -17.2820   19.5223   N
   37.0555  -24.6612  -22.0092   H
   38.6375    6.0647    2.8446   H
   23.9420   21.5058  -33.3708   O
  -46.9796   25.6075    8.5570   H
  -14.2572   30.6304   -3.7583   C
  -19.5988   42.7316   -3.9296   C
  -22.2591  -40.3008  -43.8959   S
   33.7270   37.3838  -23.5124   H
  -28.7046  -11.4008    3.0837   H
   29.1551   32.4269  -37.9123   N
   14.9355   24.2669  -40.1984   C
   49.0633  -47.4710  -39.4287   C
   20.8536   23.1201  -47.7768   C
  -21.1483  -41.3092  -23.7172   S
    3.2760  -39.1458  -47.2124   H
   27.3834   31.8421  -33.1199   N
  -22.3768  -12.8816    7.3062   N
   -2.1598  -37.7662  -31.1289   H
   40.5898  -29.7098   23.2481   H
    4.4882   -7.8148   44.5366   S
  -34.8940   18.8213   41.0248   S
  -39.3489  -33.8552   24.2514   C
    7.2062  -33.4751  -15.4882   S
   -1.0903  -47.5269   20.3757   C
  -35.8039  -43.2086   -8.0640   O
   21.9563  -18.5916   -5.6623   S
  -19.1169    0.8133   -0.5211   S
   36.4558   -4.4535    9.1760   C
    7.1292    1.9873  -36.5001   H
  -16.5785  -36.2972  -23.7027   O
   35.5651   10.2048   -6.8129   N
   22.1497   25.6739  -20.4769   S
    4.1268  -21.3467  -23.2120   S
  -44.5210  -36.0397    5.7476   H
  -27.4212   42.2318  -34.8818   S
   33.9420    9.9094  -34.1600   N
  -29.4087   32.7480    7.3177   H
  -33.5520   25.2011   26.6446   S
   43.8743  -35.5621   -3.0704   H
   10.9607  -22.7135   20.6200   C
  -43.0818  -40.1069  -47.1170   H
  -43.7929  -36.1430  -13.6255   H
    4.3867  -47.1870  -37.2812   N
   34.2323   20.4128   46.4746   C
  -15.5112  -11.8832  -48.9209   C
  -34.3243   45.5814  -37.4287   H
   21.3343   24.3672   -2.8693   H
   -8.4363  -28.1129  -12.9911   C
   18.5246  -41.8810   41.9002   S
   41.0185  -41.6096  -33.5117   O
   39.8996  -44.3740  -31.9342   O
  -30.3515   24.9803   15.5684   H
   14.2937  -38.6084  -42.9882   C
   44.2995  -12.0122   10.9817   N
   49.0107  -45.0100  -20.5822   H
  -19.4554  -17.4355   -2.5471   C
   19.3571   25.4648   10.6614   N
  -23.0700   33.5630  -12.3773   S
   28.2587   30.0748   31.9689   N
    8.3796   35.7283   38.1215   N
  -47.8622  -13.6272  -16.3359   O
   33.4321   49.3498   -8.9484   H
  -43.4600  -23.0309  -26.7675   N
  -30.2423   22.6864  -17.8057   N
   14.2794   11.7976  -30.0162   N
   27.7619   18.2930    7.9442   N
  -33.8495   40.0432    5.2169   S
    1.8133   10.4177   -6.2894   N
   46.4156  -16.4948  -12.2811   C
   24.9736  -16.7666   -2.2235   O
  -48.4220   30.5374   42.6841   C
  -20.3963  -27.0905   -6.6070   C
   13.3688   36.4331   -5.0865   C
   40.3206   30.7056   33.5671   N
   45.6169   21.9691   12.1924   C
   -7.3180  -33.6275  -16.1831   N
M  END
$$$$
